2018-09-04 11:46:56,139  INFO Config:569 setting context to [file:/Users/ihab/Documents/workspace/matsim-berlin/]
2018-09-04 11:46:56,250  INFO MatsimXmlParser:155 starting to parse xml from url file:/Users/ihab/Documents/workspace/matsim-berlin/scenarios/berlin-v5.2-1pct/input/berlin-v5.2-1pct.config.xml ...
2018-09-04 11:46:56,271  INFO ConfigReader:102 using config_v2-reader
2018-09-04 11:46:56,272  INFO MatsimXmlParser:270 Trying to load http://www.matsim.org/files/dtd/config_v2.dtd. In some cases (e.g. network interface up but no connection), this may take a bit.
2018-09-04 11:46:56,337  INFO GlobalConfigGroup:74 setting number of threads to: 6
2018-09-04 11:46:56,350  INFO PlanCalcScoreConfigGroup:534 scoring parameters for subpopulation null were just replaced.
2018-09-04 11:46:56,351  INFO Config:569 setting context to [file:/Users/ihab/Documents/workspace/matsim-berlin/scenarios/berlin-v5.2-1pct/input/berlin-v5.2-1pct.config.xml]
2018-09-04 11:46:56,469  INFO MatsimXmlParser:147 starting to parse xml from file overridingConfig.xml ...
2018-09-04 11:46:56,473  INFO ConfigReader:102 using config_v2-reader
2018-09-04 11:46:56,474  INFO MatsimXmlParser:270 Trying to load http://www.matsim.org/files/dtd/config_v2.dtd. In some cases (e.g. network interface up but no connection), this may take a bit.
2018-09-04 11:46:56,525  INFO Config:569 setting context to [file:/Users/ihab/Documents/workspace/matsim-berlin/]
2018-09-04 11:46:56,553  INFO ScenarioLoaderImpl:108 loading scenario from base directory: /Users/ihab/Documents/workspace/matsim-berlin/
2018-09-04 11:46:56,553  INFO ScenarioLoaderImpl:130 loading network from file:/Users/ihab/Documents/workspace/matsim-berlin/scenarios/berlin-v5.2-10pct/input/berlin-v5.0.network.xml.gz
2018-09-04 11:46:56,556  INFO MatsimXmlParser:155 starting to parse xml from url file:/Users/ihab/Documents/workspace/matsim-berlin/scenarios/berlin-v5.2-10pct/input/berlin-v5.0.network.xml.gz ...
2018-09-04 11:46:56,562  INFO MatsimNetworkReader:120 using network_v2-reader.
2018-09-04 11:46:56,562  INFO MatsimXmlParser:270 Trying to load http://www.matsim.org/files/dtd/network_v2.dtd. In some cases (e.g. network interface up but no connection), this may take a bit.
2018-09-04 11:46:56,605  INFO NetworkImpl:167  node # 1
2018-09-04 11:46:56,606  INFO NetworkImpl:167  node # 4
2018-09-04 11:46:56,608  INFO NetworkImpl:167  node # 16
2018-09-04 11:46:56,612  INFO NetworkImpl:167  node # 64
2018-09-04 11:46:56,625  INFO NetworkImpl:167  node # 256
2018-09-04 11:46:56,650  INFO NetworkImpl:167  node # 1024
2018-09-04 11:46:56,683  INFO NetworkImpl:167  node # 4096
2018-09-04 11:46:56,751  INFO NetworkImpl:167  node # 16384
2018-09-04 11:46:56,906  INFO NetworkImpl:167  node # 65536
2018-09-04 11:46:57,016  INFO NetworkImpl:163  link # 1
2018-09-04 11:46:57,017  INFO NetworkImpl:163  link # 4
2018-09-04 11:46:57,020  INFO NetworkImpl:163  link # 16
2018-09-04 11:46:57,028  INFO NetworkImpl:163  link # 64
2018-09-04 11:46:57,053  INFO NetworkImpl:163  link # 256
2018-09-04 11:46:57,053  WARN LinkImpl:138 permlanes=0.5 of link id 100231 may cause problems
2018-09-04 11:46:57,054  WARN LinkImpl:140  Future occurences of this logging statement are suppressed.
2018-09-04 11:46:57,092  INFO NetworkImpl:163  link # 1024
2018-09-04 11:46:57,170  INFO NetworkImpl:163  link # 4096
2018-09-04 11:46:57,329  INFO NetworkImpl:163  link # 16384
2018-09-04 11:46:57,814  INFO NetworkImpl:163  link # 65536
2018-09-04 11:46:58,611  WARN LinkImpl:147 length=0.0 of link id pt_0 may cause problems
2018-09-04 11:46:58,611  WARN LinkImpl:149  Future occurences of this logging statement are suppressed.
2018-09-04 11:46:58,611  WARN LinkImpl:107 fromNode=toNode=[id=pt_060200005030][coord=[x=4584393.176069965][y=5847575.460523916]][type=null][nof_inlinks=0][nof_outlinks=0]: link is a loop
2018-09-04 11:46:58,611  WARN LinkImpl:109  Future occurences of this logging statement are suppressed.
2018-09-04 11:46:58,612  WARN NodeImpl:87 [id=pt_060200005030][coord=[x=4584393.176069965][y=5847575.460523916]][type=null][nof_inlinks=0][nof_outlinks=1]: inlink_id=pt_0 is now in- and out-link
2018-09-04 11:46:58,612  WARN NodeImpl:88  This message given only once.
2018-09-04 11:46:58,984  INFO ScenarioLoaderImpl:167 no facilities file set in config, therefore not loading any facilities.  This is not a problem except if you are using facilities
2018-09-04 11:46:58,984  INFO ScenarioLoaderImpl:177 no facility-attributes file set in config, not loading any facility attributes
2018-09-04 11:46:58,984  INFO ScenarioLoaderImpl:184 loading population from file:/Users/ihab/Documents/workspace/matsim-berlin/scenarios/berlin-v5.2-1pct/input/berlin-v5.2-1pct.plans.xml.gz
2018-09-04 11:46:58,989  INFO MatsimXmlParser:155 starting to parse xml from url file:/Users/ihab/Documents/workspace/matsim-berlin/scenarios/berlin-v5.2-1pct/input/berlin-v5.2-1pct.plans.xml.gz ...
2018-09-04 11:46:58,992  INFO PopulationReader:123 using population_v6-reader.
2018-09-04 11:46:58,992  INFO MatsimXmlParser:270 Trying to load http://www.matsim.org/files/dtd/population_v6.dtd. In some cases (e.g. network interface up but no connection), this may take a bit.
2018-09-04 11:46:59,028  WARN PopulationReaderMatsimV6:207 coordinate transformation defined both in config and in input file: setting from input file will be used
2018-09-04 11:46:59,037  INFO PopulationImpl:112  person # 1
2018-09-04 11:46:59,043  INFO PopulationImpl:112  person # 4
2018-09-04 11:46:59,054  INFO PopulationImpl:112  person # 16
2018-09-04 11:46:59,081  INFO PopulationImpl:112  person # 64
2018-09-04 11:46:59,138  INFO PopulationImpl:112  person # 256
2018-09-04 11:46:59,277  INFO PopulationImpl:112  person # 1024
2018-09-04 11:46:59,700  INFO PopulationImpl:112  person # 4096
2018-09-04 11:47:01,344  INFO PopulationImpl:112  person # 16384
2018-09-04 11:47:05,665  INFO PopulationUtils:1013  person # 49290
2018-09-04 11:47:05,665  INFO ScenarioLoaderImpl:201 loading person attributes from file:/Users/ihab/Documents/workspace/matsim-berlin/scenarios/berlin-v5.2-10pct/input/berlin-v5.0.person-attributes.xml.gz
2018-09-04 11:47:05,668  INFO MatsimXmlParser:155 starting to parse xml from url file:/Users/ihab/Documents/workspace/matsim-berlin/scenarios/berlin-v5.2-10pct/input/berlin-v5.0.person-attributes.xml.gz ...
2018-09-04 11:47:05,669  INFO MatsimXmlParser:270 Trying to load http://matsim.org/files/dtd/objectattributes_v1.dtd. In some cases (e.g. network interface up but no connection), this may take a bit.
2018-09-04 11:47:05,835  INFO ObjectAttributesXmlReader:90 reading object #0
2018-09-04 11:47:06,144  INFO ObjectAttributesXmlReader:90 reading object #100000
2018-09-04 11:47:06,426  INFO ObjectAttributesXmlReader:90 reading object #200000
2018-09-04 11:47:06,696  INFO ObjectAttributesXmlReader:90 reading object #300000
2018-09-04 11:47:07,000  INFO ObjectAttributesXmlReader:90 reading object #400000
2018-09-04 11:47:07,275  INFO ScenarioLoaderImpl:219 no households file set in config, not loading households
2018-09-04 11:47:07,275  INFO ScenarioLoaderImpl:230 no household-attributes file set in config, not loading any household attributes
2018-09-04 11:47:07,281  INFO MatsimXmlParser:155 starting to parse xml from url file:/Users/ihab/Documents/workspace/matsim-berlin/scenarios/berlin-v5.2-10pct/input/berlin-v5.0.transit-schedule.xml.gz ...
2018-09-04 11:47:07,283  INFO MatsimXmlParser:270 Trying to load http://www.matsim.org/files/dtd/transitSchedule_v2.dtd. In some cases (e.g. network interface up but no connection), this may take a bit.
2018-09-04 11:47:09,854  INFO ScenarioLoaderImpl:267 loading transit vehicles from ../../berlin-v5.2-10pct/input/berlin-v5.0.transit-vehicles.xml.gz
2018-09-04 11:47:09,857  INFO MatsimXmlParser:155 starting to parse xml from url file:/Users/ihab/Documents/workspace/matsim-berlin/scenarios/berlin-v5.2-10pct/input/berlin-v5.0.transit-vehicles.xml.gz ...
2018-09-04 11:47:09,859  INFO MatsimXmlParser:270 Trying to load http://www.matsim.org/files/dtd/vehicleDefinitions_v1.0.xsd. In some cases (e.g. network interface up but no connection), this may take a bit.
2018-09-04 11:47:09,905  INFO MatsimXmlParser:270 Trying to load http://www.matsim.org/files/dtd/matsimCommon.xsd. In some cases (e.g. network interface up but no connection), this may take a bit.
2018-09-04 11:47:09,940  INFO MatsimXmlParser:270 Trying to load http://www.matsim.org/files/dtd/vehicleDefinitionsEnumTypes.xsd. In some cases (e.g. network interface up but no connection), this may take a bit.
2018-09-04 11:47:09,985  INFO Counter:70 [VehiclesImpl] added vehicle # 1
2018-09-04 11:47:09,985  INFO Counter:70 [VehiclesImpl] added vehicle # 2
2018-09-04 11:47:09,986  INFO Counter:70 [VehiclesImpl] added vehicle # 4
2018-09-04 11:47:09,986  INFO Counter:70 [VehiclesImpl] added vehicle # 8
2018-09-04 11:47:09,986  INFO Counter:70 [VehiclesImpl] added vehicle # 16
2018-09-04 11:47:09,987  INFO Counter:70 [VehiclesImpl] added vehicle # 32
2018-09-04 11:47:09,989  INFO Counter:70 [VehiclesImpl] added vehicle # 64
2018-09-04 11:47:09,991  INFO Counter:70 [VehiclesImpl] added vehicle # 128
2018-09-04 11:47:09,996  INFO Counter:70 [VehiclesImpl] added vehicle # 256
2018-09-04 11:47:10,004  INFO Counter:70 [VehiclesImpl] added vehicle # 512
2018-09-04 11:47:10,017  INFO Counter:70 [VehiclesImpl] added vehicle # 1024
2018-09-04 11:47:10,035  INFO Counter:70 [VehiclesImpl] added vehicle # 2048
2018-09-04 11:47:10,056  INFO Counter:70 [VehiclesImpl] added vehicle # 4096
2018-09-04 11:47:10,074  INFO Counter:70 [VehiclesImpl] added vehicle # 8192
2018-09-04 11:47:10,108  INFO Counter:70 [VehiclesImpl] added vehicle # 16384
2018-09-04 11:47:10,144  INFO Counter:70 [VehiclesImpl] added vehicle # 32768
2018-09-04 11:47:10,204  INFO Counter:70 [VehiclesImpl] added vehicle # 65536
2018-09-04 11:47:10,209  INFO ScenarioLoaderImpl:277 loading vehicles from ../../berlin-v5.2-10pct/input/berlin-v5.0.mode-vehicle-types.xml
2018-09-04 11:47:10,209  INFO MatsimXmlParser:155 starting to parse xml from url file:/Users/ihab/Documents/workspace/matsim-berlin/scenarios/berlin-v5.2-10pct/input/berlin-v5.0.mode-vehicle-types.xml ...
2018-09-04 11:47:10,211  INFO MatsimXmlParser:270 Trying to load http://www.matsim.org/files/dtd/vehicleDefinitions_v1.0.xsd. In some cases (e.g. network interface up but no connection), this may take a bit.
2018-09-04 11:47:10,248  INFO MatsimXmlParser:270 Trying to load http://www.matsim.org/files/dtd/matsimCommon.xsd. In some cases (e.g. network interface up but no connection), this may take a bit.
2018-09-04 11:47:10,286  INFO MatsimXmlParser:270 Trying to load http://www.matsim.org/files/dtd/vehicleDefinitionsEnumTypes.xsd. In some cases (e.g. network interface up but no connection), this may take a bit.
2018-09-04 11:47:10,988  INFO SimStepParallelEventsManagerImpl:79 number of threads=1
2018-09-04 11:47:10,995  INFO EventsManagerImpl:144 adding Event-Handler: org.matsim.core.trafficmonitoring.TravelTimeCalculator
2018-09-04 11:47:10,995  INFO EventsManagerImpl:148   org.matsim.api.core.v01.events.handler.LinkEnterEventHandler
2018-09-04 11:47:10,995  INFO EventsManagerImpl:207     > org.matsim.api.core.v01.events.LinkEnterEvent
2018-09-04 11:47:10,996  INFO EventsManagerImpl:148   org.matsim.api.core.v01.events.handler.LinkLeaveEventHandler
2018-09-04 11:47:10,996  INFO EventsManagerImpl:207     > org.matsim.api.core.v01.events.LinkLeaveEvent
2018-09-04 11:47:10,996  INFO EventsManagerImpl:148   org.matsim.api.core.v01.events.handler.VehicleEntersTrafficEventHandler
2018-09-04 11:47:10,997  INFO EventsManagerImpl:207     > org.matsim.api.core.v01.events.VehicleEntersTrafficEvent
2018-09-04 11:47:10,997  INFO EventsManagerImpl:148   org.matsim.api.core.v01.events.handler.VehicleLeavesTrafficEventHandler
2018-09-04 11:47:10,997  INFO EventsManagerImpl:207     > org.matsim.api.core.v01.events.VehicleLeavesTrafficEvent
2018-09-04 11:47:10,997  INFO EventsManagerImpl:148   org.matsim.core.api.experimental.events.handler.VehicleArrivesAtFacilityEventHandler
2018-09-04 11:47:10,998  INFO EventsManagerImpl:207     > org.matsim.core.api.experimental.events.VehicleArrivesAtFacilityEvent
2018-09-04 11:47:10,998  INFO EventsManagerImpl:148   org.matsim.api.core.v01.events.handler.VehicleAbortsEventHandler
2018-09-04 11:47:10,999  INFO EventsManagerImpl:207     > org.matsim.api.core.v01.events.VehicleAbortsEvent
2018-09-04 11:47:10,999  INFO EventsManagerImpl:156 
2018-09-04 11:47:10,999  INFO EventsManagerImpl:144 adding Event-Handler: org.matsim.core.trafficmonitoring.TravelTimeCalculator
2018-09-04 11:47:10,999  INFO EventsManagerImpl:148   org.matsim.api.core.v01.events.handler.LinkEnterEventHandler
2018-09-04 11:47:11,000  INFO EventsManagerImpl:207     > org.matsim.api.core.v01.events.LinkEnterEvent
2018-09-04 11:47:11,000  INFO EventsManagerImpl:148   org.matsim.api.core.v01.events.handler.LinkLeaveEventHandler
2018-09-04 11:47:11,000  INFO EventsManagerImpl:207     > org.matsim.api.core.v01.events.LinkLeaveEvent
2018-09-04 11:47:11,000  INFO EventsManagerImpl:148   org.matsim.api.core.v01.events.handler.VehicleEntersTrafficEventHandler
2018-09-04 11:47:11,001  INFO EventsManagerImpl:207     > org.matsim.api.core.v01.events.VehicleEntersTrafficEvent
2018-09-04 11:47:11,001  INFO EventsManagerImpl:148   org.matsim.api.core.v01.events.handler.VehicleLeavesTrafficEventHandler
2018-09-04 11:47:11,001  INFO EventsManagerImpl:207     > org.matsim.api.core.v01.events.VehicleLeavesTrafficEvent
2018-09-04 11:47:11,001  INFO EventsManagerImpl:148   org.matsim.core.api.experimental.events.handler.VehicleArrivesAtFacilityEventHandler
2018-09-04 11:47:11,002  INFO EventsManagerImpl:207     > org.matsim.core.api.experimental.events.VehicleArrivesAtFacilityEvent
2018-09-04 11:47:11,002  INFO EventsManagerImpl:148   org.matsim.api.core.v01.events.handler.VehicleAbortsEventHandler
2018-09-04 11:47:11,002  INFO EventsManagerImpl:207     > org.matsim.api.core.v01.events.VehicleAbortsEvent
2018-09-04 11:47:11,002  INFO EventsManagerImpl:156 
2018-09-04 11:47:11,003  INFO EventsManagerImpl:144 adding Event-Handler: org.matsim.core.trafficmonitoring.TravelTimeCalculator
2018-09-04 11:47:11,003  INFO EventsManagerImpl:148   org.matsim.api.core.v01.events.handler.LinkEnterEventHandler
2018-09-04 11:47:11,004  INFO EventsManagerImpl:207     > org.matsim.api.core.v01.events.LinkEnterEvent
2018-09-04 11:47:11,004  INFO EventsManagerImpl:148   org.matsim.api.core.v01.events.handler.LinkLeaveEventHandler
2018-09-04 11:47:11,004  INFO EventsManagerImpl:207     > org.matsim.api.core.v01.events.LinkLeaveEvent
2018-09-04 11:47:11,004  INFO EventsManagerImpl:148   org.matsim.api.core.v01.events.handler.VehicleEntersTrafficEventHandler
2018-09-04 11:47:11,005  INFO EventsManagerImpl:207     > org.matsim.api.core.v01.events.VehicleEntersTrafficEvent
2018-09-04 11:47:11,005  INFO EventsManagerImpl:148   org.matsim.api.core.v01.events.handler.VehicleLeavesTrafficEventHandler
2018-09-04 11:47:11,005  INFO EventsManagerImpl:207     > org.matsim.api.core.v01.events.VehicleLeavesTrafficEvent
2018-09-04 11:47:11,005  INFO EventsManagerImpl:148   org.matsim.core.api.experimental.events.handler.VehicleArrivesAtFacilityEventHandler
2018-09-04 11:47:11,006  INFO EventsManagerImpl:207     > org.matsim.core.api.experimental.events.VehicleArrivesAtFacilityEvent
2018-09-04 11:47:11,006  INFO EventsManagerImpl:148   org.matsim.api.core.v01.events.handler.VehicleAbortsEventHandler
2018-09-04 11:47:11,006  INFO EventsManagerImpl:207     > org.matsim.api.core.v01.events.VehicleAbortsEvent
2018-09-04 11:47:11,006  INFO EventsManagerImpl:156 
2018-09-04 11:47:11,007  INFO EventsManagerImpl:144 adding Event-Handler: org.matsim.core.trafficmonitoring.TravelTimeCalculator
2018-09-04 11:47:11,007  INFO EventsManagerImpl:148   org.matsim.api.core.v01.events.handler.LinkEnterEventHandler
2018-09-04 11:47:11,007  INFO EventsManagerImpl:207     > org.matsim.api.core.v01.events.LinkEnterEvent
2018-09-04 11:47:11,007  INFO EventsManagerImpl:148   org.matsim.api.core.v01.events.handler.LinkLeaveEventHandler
2018-09-04 11:47:11,007  INFO EventsManagerImpl:207     > org.matsim.api.core.v01.events.LinkLeaveEvent
2018-09-04 11:47:11,007  INFO EventsManagerImpl:148   org.matsim.api.core.v01.events.handler.VehicleEntersTrafficEventHandler
2018-09-04 11:47:11,008  INFO EventsManagerImpl:207     > org.matsim.api.core.v01.events.VehicleEntersTrafficEvent
2018-09-04 11:47:11,008  INFO EventsManagerImpl:148   org.matsim.api.core.v01.events.handler.VehicleLeavesTrafficEventHandler
2018-09-04 11:47:11,008  INFO EventsManagerImpl:207     > org.matsim.api.core.v01.events.VehicleLeavesTrafficEvent
2018-09-04 11:47:11,008  INFO EventsManagerImpl:148   org.matsim.core.api.experimental.events.handler.VehicleArrivesAtFacilityEventHandler
2018-09-04 11:47:11,009  INFO EventsManagerImpl:207     > org.matsim.core.api.experimental.events.VehicleArrivesAtFacilityEvent
2018-09-04 11:47:11,009  INFO EventsManagerImpl:148   org.matsim.api.core.v01.events.handler.VehicleAbortsEventHandler
2018-09-04 11:47:11,009  INFO EventsManagerImpl:207     > org.matsim.api.core.v01.events.VehicleAbortsEvent
2018-09-04 11:47:11,009  INFO EventsManagerImpl:156 
2018-09-04 11:47:11,026  INFO StrategyManager:62 global innovation switch off after iteration: 0
2018-09-04 11:47:11,028  INFO GenericStrategyManager:331 added change request:  iteration=1 newWeight=0.0 strategy=RandomPlanSelector_ReRoute
2018-09-04 11:47:11,028  INFO GenericStrategyManager:331 added change request:  iteration=1 newWeight=0.0 strategy=RandomPlanSelector_SubtourModeChoice_ReRoute
2018-09-04 11:47:11,028  INFO GenericStrategyManager:331 added change request:  iteration=1 newWeight=0.0 strategy=RandomPlanSelector_TimeAllocationMutator
2018-09-04 11:47:11,028  INFO GenericStrategyManager:331 added change request:  iteration=1 newWeight=0.0 strategy=RandomPlanSelector_ReRoute
2018-09-04 11:47:11,029  INFO GenericStrategyManager:363 setting PlanSelectorForRemoval to class org.matsim.core.replanning.selectors.WorstPlanForRemovalSelector
2018-09-04 11:47:11,030  INFO EventsManagerImpl:144 adding Event-Handler: org.matsim.core.scoring.EventsToActivities
2018-09-04 11:47:11,030  INFO EventsManagerImpl:148   org.matsim.api.core.v01.events.handler.ActivityStartEventHandler
2018-09-04 11:47:11,030  INFO EventsManagerImpl:207     > org.matsim.api.core.v01.events.ActivityStartEvent
2018-09-04 11:47:11,031  INFO EventsManagerImpl:148   org.matsim.api.core.v01.events.handler.ActivityEndEventHandler
2018-09-04 11:47:11,031  INFO EventsManagerImpl:207     > org.matsim.api.core.v01.events.ActivityEndEvent
2018-09-04 11:47:11,031  INFO EventsManagerImpl:156 
2018-09-04 11:47:11,031  INFO EventsManagerImpl:144 adding Event-Handler: org.matsim.core.scoring.EventsToActivities
2018-09-04 11:47:11,031  INFO EventsManagerImpl:148   org.matsim.api.core.v01.events.handler.ActivityStartEventHandler
2018-09-04 11:47:11,031  INFO EventsManagerImpl:207     > org.matsim.api.core.v01.events.ActivityStartEvent
2018-09-04 11:47:11,031  INFO EventsManagerImpl:148   org.matsim.api.core.v01.events.handler.ActivityEndEventHandler
2018-09-04 11:47:11,032  INFO EventsManagerImpl:207     > org.matsim.api.core.v01.events.ActivityEndEvent
2018-09-04 11:47:11,032  INFO EventsManagerImpl:156 
2018-09-04 11:47:11,032  INFO EventsManagerImpl:144 adding Event-Handler: org.matsim.core.scoring.EventsToLegs
2018-09-04 11:47:11,032  INFO EventsManagerImpl:148   org.matsim.api.core.v01.events.handler.PersonDepartureEventHandler
2018-09-04 11:47:11,033  INFO EventsManagerImpl:207     > org.matsim.api.core.v01.events.PersonDepartureEvent
2018-09-04 11:47:11,033  INFO EventsManagerImpl:148   org.matsim.api.core.v01.events.handler.PersonArrivalEventHandler
2018-09-04 11:47:11,033  INFO EventsManagerImpl:207     > org.matsim.api.core.v01.events.PersonArrivalEvent
2018-09-04 11:47:11,033  INFO EventsManagerImpl:148   org.matsim.api.core.v01.events.handler.LinkLeaveEventHandler
2018-09-04 11:47:11,033  INFO EventsManagerImpl:207     > org.matsim.api.core.v01.events.LinkLeaveEvent
2018-09-04 11:47:11,034  INFO EventsManagerImpl:148   org.matsim.api.core.v01.events.handler.LinkEnterEventHandler
2018-09-04 11:47:11,034  INFO EventsManagerImpl:207     > org.matsim.api.core.v01.events.LinkEnterEvent
2018-09-04 11:47:11,034  INFO EventsManagerImpl:148   org.matsim.core.api.experimental.events.handler.TeleportationArrivalEventHandler
2018-09-04 11:47:11,034  INFO EventsManagerImpl:207     > org.matsim.core.api.experimental.events.TeleportationArrivalEvent
2018-09-04 11:47:11,034  INFO EventsManagerImpl:148   org.matsim.api.core.v01.events.handler.TransitDriverStartsEventHandler
2018-09-04 11:47:11,035  INFO EventsManagerImpl:207     > org.matsim.api.core.v01.events.TransitDriverStartsEvent
2018-09-04 11:47:11,035  INFO EventsManagerImpl:148   org.matsim.api.core.v01.events.handler.PersonEntersVehicleEventHandler
2018-09-04 11:47:11,035  INFO EventsManagerImpl:207     > org.matsim.api.core.v01.events.PersonEntersVehicleEvent
2018-09-04 11:47:11,035  INFO EventsManagerImpl:148   org.matsim.core.api.experimental.events.handler.VehicleArrivesAtFacilityEventHandler
2018-09-04 11:47:11,035  INFO EventsManagerImpl:207     > org.matsim.core.api.experimental.events.VehicleArrivesAtFacilityEvent
2018-09-04 11:47:11,036  INFO EventsManagerImpl:148   org.matsim.api.core.v01.events.handler.VehicleEntersTrafficEventHandler
2018-09-04 11:47:11,036  INFO EventsManagerImpl:207     > org.matsim.api.core.v01.events.VehicleEntersTrafficEvent
2018-09-04 11:47:11,036  INFO EventsManagerImpl:148   org.matsim.api.core.v01.events.handler.VehicleLeavesTrafficEventHandler
2018-09-04 11:47:11,036  INFO EventsManagerImpl:207     > org.matsim.api.core.v01.events.VehicleLeavesTrafficEvent
2018-09-04 11:47:11,036  INFO EventsManagerImpl:156 
2018-09-04 11:47:11,037  INFO EventsManagerImpl:144 adding Event-Handler: org.matsim.core.scoring.EventsToLegs
2018-09-04 11:47:11,037  INFO EventsManagerImpl:148   org.matsim.api.core.v01.events.handler.PersonDepartureEventHandler
2018-09-04 11:47:11,037  INFO EventsManagerImpl:207     > org.matsim.api.core.v01.events.PersonDepartureEvent
2018-09-04 11:47:11,037  INFO EventsManagerImpl:148   org.matsim.api.core.v01.events.handler.PersonArrivalEventHandler
2018-09-04 11:47:11,037  INFO EventsManagerImpl:207     > org.matsim.api.core.v01.events.PersonArrivalEvent
2018-09-04 11:47:11,038  INFO EventsManagerImpl:148   org.matsim.api.core.v01.events.handler.LinkLeaveEventHandler
2018-09-04 11:47:11,038  INFO EventsManagerImpl:207     > org.matsim.api.core.v01.events.LinkLeaveEvent
2018-09-04 11:47:11,038  INFO EventsManagerImpl:148   org.matsim.api.core.v01.events.handler.LinkEnterEventHandler
2018-09-04 11:47:11,038  INFO EventsManagerImpl:207     > org.matsim.api.core.v01.events.LinkEnterEvent
2018-09-04 11:47:11,039  INFO EventsManagerImpl:148   org.matsim.core.api.experimental.events.handler.TeleportationArrivalEventHandler
2018-09-04 11:47:11,039  INFO EventsManagerImpl:207     > org.matsim.core.api.experimental.events.TeleportationArrivalEvent
2018-09-04 11:47:11,039  INFO EventsManagerImpl:148   org.matsim.api.core.v01.events.handler.TransitDriverStartsEventHandler
2018-09-04 11:47:11,039  INFO EventsManagerImpl:207     > org.matsim.api.core.v01.events.TransitDriverStartsEvent
2018-09-04 11:47:11,040  INFO EventsManagerImpl:148   org.matsim.api.core.v01.events.handler.PersonEntersVehicleEventHandler
2018-09-04 11:47:11,040  INFO EventsManagerImpl:207     > org.matsim.api.core.v01.events.PersonEntersVehicleEvent
2018-09-04 11:47:11,040  INFO EventsManagerImpl:148   org.matsim.core.api.experimental.events.handler.VehicleArrivesAtFacilityEventHandler
2018-09-04 11:47:11,040  INFO EventsManagerImpl:207     > org.matsim.core.api.experimental.events.VehicleArrivesAtFacilityEvent
2018-09-04 11:47:11,041  INFO EventsManagerImpl:148   org.matsim.api.core.v01.events.handler.VehicleEntersTrafficEventHandler
2018-09-04 11:47:11,041  INFO EventsManagerImpl:207     > org.matsim.api.core.v01.events.VehicleEntersTrafficEvent
2018-09-04 11:47:11,041  INFO EventsManagerImpl:148   org.matsim.api.core.v01.events.handler.VehicleLeavesTrafficEventHandler
2018-09-04 11:47:11,041  INFO EventsManagerImpl:207     > org.matsim.api.core.v01.events.VehicleLeavesTrafficEvent
2018-09-04 11:47:11,042  INFO EventsManagerImpl:156 
2018-09-04 11:47:11,043  INFO EventsManagerImpl:144 adding Event-Handler: org.matsim.core.scoring.ScoringFunctionsForPopulation
2018-09-04 11:47:11,043  INFO EventsManagerImpl:148   org.matsim.core.events.handler.BasicEventHandler
2018-09-04 11:47:11,043  INFO EventsManagerImpl:207     > org.matsim.api.core.v01.events.Event
2018-09-04 11:47:11,043  INFO EventsManagerImpl:148   org.matsim.core.scoring.EventsToLegs$LegHandler
2018-09-04 11:47:11,043  INFO EventsManagerImpl:148   org.matsim.core.scoring.EventsToActivities$ActivityHandler
2018-09-04 11:47:11,044  INFO EventsManagerImpl:156 
2018-09-04 11:47:11,044  INFO EventsManagerImpl:144 adding Event-Handler: org.matsim.core.scoring.ScoringFunctionsForPopulation
2018-09-04 11:47:11,044  INFO EventsManagerImpl:148   org.matsim.core.events.handler.BasicEventHandler
2018-09-04 11:47:11,044  INFO EventsManagerImpl:207     > org.matsim.api.core.v01.events.Event
2018-09-04 11:47:11,045  INFO EventsManagerImpl:148   org.matsim.core.scoring.EventsToLegs$LegHandler
2018-09-04 11:47:11,045  INFO EventsManagerImpl:148   org.matsim.core.scoring.EventsToActivities$ActivityHandler
2018-09-04 11:47:11,045  INFO EventsManagerImpl:156 
2018-09-04 11:47:11,045  INFO EventsManagerImpl:144 adding Event-Handler: org.matsim.core.events.algorithms.Vehicle2DriverEventHandler
2018-09-04 11:47:11,045  INFO EventsManagerImpl:148   org.matsim.api.core.v01.events.handler.VehicleEntersTrafficEventHandler
2018-09-04 11:47:11,046  INFO EventsManagerImpl:207     > org.matsim.api.core.v01.events.VehicleEntersTrafficEvent
2018-09-04 11:47:11,046  INFO EventsManagerImpl:148   org.matsim.api.core.v01.events.handler.VehicleLeavesTrafficEventHandler
2018-09-04 11:47:11,046  INFO EventsManagerImpl:207     > org.matsim.api.core.v01.events.VehicleLeavesTrafficEvent
2018-09-04 11:47:11,047  INFO EventsManagerImpl:156 
2018-09-04 11:47:11,047  INFO EventsManagerImpl:144 adding Event-Handler: org.matsim.core.events.algorithms.Vehicle2DriverEventHandler
2018-09-04 11:47:11,047  INFO EventsManagerImpl:148   org.matsim.api.core.v01.events.handler.VehicleEntersTrafficEventHandler
2018-09-04 11:47:11,047  INFO EventsManagerImpl:207     > org.matsim.api.core.v01.events.VehicleEntersTrafficEvent
2018-09-04 11:47:11,048  INFO EventsManagerImpl:148   org.matsim.api.core.v01.events.handler.VehicleLeavesTrafficEventHandler
2018-09-04 11:47:11,048  INFO EventsManagerImpl:207     > org.matsim.api.core.v01.events.VehicleLeavesTrafficEvent
2018-09-04 11:47:11,048  INFO EventsManagerImpl:156 
2018-09-04 11:47:11,050  INFO CalcLinkStats:151  resetting `count' to zero.  This info is here since we want to check when this is happening during normal simulation runs.  kai, jan'11
2018-09-04 11:47:11,406  INFO EventsManagerImpl:144 adding Event-Handler: org.matsim.analysis.VolumesAnalyzer
2018-09-04 11:47:11,406  INFO EventsManagerImpl:148   org.matsim.api.core.v01.events.handler.LinkLeaveEventHandler
2018-09-04 11:47:11,406  INFO EventsManagerImpl:207     > org.matsim.api.core.v01.events.LinkLeaveEvent
2018-09-04 11:47:11,407  INFO EventsManagerImpl:148   org.matsim.api.core.v01.events.handler.VehicleEntersTrafficEventHandler
2018-09-04 11:47:11,407  INFO EventsManagerImpl:207     > org.matsim.api.core.v01.events.VehicleEntersTrafficEvent
2018-09-04 11:47:11,407  INFO EventsManagerImpl:156 
2018-09-04 11:47:11,407  INFO EventsManagerImpl:144 adding Event-Handler: org.matsim.analysis.VolumesAnalyzer
2018-09-04 11:47:11,408  INFO EventsManagerImpl:148   org.matsim.api.core.v01.events.handler.LinkLeaveEventHandler
2018-09-04 11:47:11,408  INFO EventsManagerImpl:207     > org.matsim.api.core.v01.events.LinkLeaveEvent
2018-09-04 11:47:11,408  INFO EventsManagerImpl:148   org.matsim.api.core.v01.events.handler.VehicleEntersTrafficEventHandler
2018-09-04 11:47:11,408  INFO EventsManagerImpl:207     > org.matsim.api.core.v01.events.VehicleEntersTrafficEvent
2018-09-04 11:47:11,408  INFO EventsManagerImpl:156 
2018-09-04 11:47:11,409  INFO EventsManagerImpl:144 adding Event-Handler: org.matsim.analysis.LegHistogram
2018-09-04 11:47:11,409  INFO EventsManagerImpl:148   org.matsim.api.core.v01.events.handler.PersonDepartureEventHandler
2018-09-04 11:47:11,410  INFO EventsManagerImpl:207     > org.matsim.api.core.v01.events.PersonDepartureEvent
2018-09-04 11:47:11,410  INFO EventsManagerImpl:148   org.matsim.api.core.v01.events.handler.PersonArrivalEventHandler
2018-09-04 11:47:11,410  INFO EventsManagerImpl:207     > org.matsim.api.core.v01.events.PersonArrivalEvent
2018-09-04 11:47:11,410  INFO EventsManagerImpl:148   org.matsim.api.core.v01.events.handler.PersonStuckEventHandler
2018-09-04 11:47:11,410  INFO EventsManagerImpl:207     > org.matsim.api.core.v01.events.PersonStuckEvent
2018-09-04 11:47:11,410  INFO EventsManagerImpl:156 
2018-09-04 11:47:11,411  INFO EventsManagerImpl:144 adding Event-Handler: org.matsim.analysis.LegHistogram
2018-09-04 11:47:11,411  INFO EventsManagerImpl:148   org.matsim.api.core.v01.events.handler.PersonDepartureEventHandler
2018-09-04 11:47:11,411  INFO EventsManagerImpl:207     > org.matsim.api.core.v01.events.PersonDepartureEvent
2018-09-04 11:47:11,411  INFO EventsManagerImpl:148   org.matsim.api.core.v01.events.handler.PersonArrivalEventHandler
2018-09-04 11:47:11,411  INFO EventsManagerImpl:207     > org.matsim.api.core.v01.events.PersonArrivalEvent
2018-09-04 11:47:11,412  INFO EventsManagerImpl:148   org.matsim.api.core.v01.events.handler.PersonStuckEventHandler
2018-09-04 11:47:11,412  INFO EventsManagerImpl:207     > org.matsim.api.core.v01.events.PersonStuckEvent
2018-09-04 11:47:11,412  INFO EventsManagerImpl:156 
2018-09-04 11:47:11,412  INFO EventsManagerImpl:144 adding Event-Handler: org.matsim.analysis.CalcLegTimes
2018-09-04 11:47:11,412  INFO EventsManagerImpl:148   org.matsim.api.core.v01.events.handler.PersonDepartureEventHandler
2018-09-04 11:47:11,413  INFO EventsManagerImpl:207     > org.matsim.api.core.v01.events.PersonDepartureEvent
2018-09-04 11:47:11,413  INFO EventsManagerImpl:148   org.matsim.api.core.v01.events.handler.PersonArrivalEventHandler
2018-09-04 11:47:11,413  INFO EventsManagerImpl:207     > org.matsim.api.core.v01.events.PersonArrivalEvent
2018-09-04 11:47:11,413  INFO EventsManagerImpl:148   org.matsim.api.core.v01.events.handler.ActivityEndEventHandler
2018-09-04 11:47:11,413  INFO EventsManagerImpl:207     > org.matsim.api.core.v01.events.ActivityEndEvent
2018-09-04 11:47:11,414  INFO EventsManagerImpl:148   org.matsim.api.core.v01.events.handler.ActivityStartEventHandler
2018-09-04 11:47:11,414  INFO EventsManagerImpl:207     > org.matsim.api.core.v01.events.ActivityStartEvent
2018-09-04 11:47:11,414  INFO EventsManagerImpl:156 
2018-09-04 11:47:11,414  INFO EventsManagerImpl:144 adding Event-Handler: org.matsim.analysis.CalcLegTimes
2018-09-04 11:47:11,414  INFO EventsManagerImpl:148   org.matsim.api.core.v01.events.handler.PersonDepartureEventHandler
2018-09-04 11:47:11,415  INFO EventsManagerImpl:207     > org.matsim.api.core.v01.events.PersonDepartureEvent
2018-09-04 11:47:11,415  INFO EventsManagerImpl:148   org.matsim.api.core.v01.events.handler.PersonArrivalEventHandler
2018-09-04 11:47:11,415  INFO EventsManagerImpl:207     > org.matsim.api.core.v01.events.PersonArrivalEvent
2018-09-04 11:47:11,415  INFO EventsManagerImpl:148   org.matsim.api.core.v01.events.handler.ActivityEndEventHandler
2018-09-04 11:47:11,415  INFO EventsManagerImpl:207     > org.matsim.api.core.v01.events.ActivityEndEvent
2018-09-04 11:47:11,416  INFO EventsManagerImpl:148   org.matsim.api.core.v01.events.handler.ActivityStartEventHandler
2018-09-04 11:47:11,416  INFO EventsManagerImpl:207     > org.matsim.api.core.v01.events.ActivityStartEvent
2018-09-04 11:47:11,416  INFO EventsManagerImpl:156 
2018-09-04 11:47:11,418  INFO AbstractController:52 Used Controler-Class: org.matsim.core.controler.NewControler
2018-09-04 11:47:11,418  INFO Config:535 ConfigConsistencyChecker with runtime type=class org.matsim.core.config.consistency.ConfigConsistencyCheckerImpl was already added; not adding it a second time
2018-09-04 11:47:11,419  INFO Injector:81 === printInjector start ===
2018-09-04 11:47:11,420  INFO Injector:85 org.matsim.core.router.util.TravelTime @com.google.inject.name.Named(value=ride)
2018-09-04 11:47:11,421  INFO Injector:86   --> provider: FactoryProxy{key=Key[type=org.matsim.core.router.util.TravelTime, annotation=@com.google.inject.name.Named(value=ride)], provider=org.matsim.core.trafficmonitoring.TravelTimeCalculatorModule$1@5aa9e4eb}
2018-09-04 11:47:11,421  INFO Injector:87   --> source: org.matsim.run.RunBerlinScenario$2.install(RunBerlinScenario.java:97)
2018-09-04 11:47:11,421  INFO Injector:89   --> scope: Scopes.NO_SCOPE
2018-09-04 11:47:11,421  INFO Injector:92   --> target: Key[type=org.matsim.core.router.util.TravelTime, annotation=@com.google.inject.name.Named(value=car)]
2018-09-04 11:47:11,421  INFO Injector:94   ==full==> LinkedKeyBinding{key=Key[type=org.matsim.core.router.util.TravelTime, annotation=@com.google.inject.name.Named(value=ride)], source=org.matsim.run.RunBerlinScenario$2.install(RunBerlinScenario.java:97), scope=Scopes.NO_SCOPE, target=Key[type=org.matsim.core.router.util.TravelTime, annotation=@com.google.inject.name.Named(value=car)]}
2018-09-04 11:47:11,421  INFO Injector:96 
2018-09-04 11:47:11,421  INFO Injector:85 org.matsim.core.router.costcalculators.TravelDisutilityFactory @com.google.inject.name.Named(value=ride)
2018-09-04 11:47:11,421  INFO Injector:86   --> provider: FactoryProxy{key=Key[type=org.matsim.core.router.costcalculators.TravelDisutilityFactory, annotation=@com.google.inject.name.Named(value=ride)], provider=ConstantFactory{value=org.matsim.core.router.costcalculators.RandomizingTimeDistanceTravelDisutilityFactory@342c38f8}[Scopes.SINGLETON]}
2018-09-04 11:47:11,421  INFO Injector:87   --> source: org.matsim.run.RunBerlinScenario$2.install(RunBerlinScenario.java:98)
2018-09-04 11:47:11,421  INFO Injector:89   --> scope: Scopes.NO_SCOPE
2018-09-04 11:47:11,421  INFO Injector:92   --> target: Key[type=org.matsim.core.router.costcalculators.TravelDisutilityFactory, annotation=@com.google.inject.name.Named(value=car)]
2018-09-04 11:47:11,421  INFO Injector:94   ==full==> LinkedKeyBinding{key=Key[type=org.matsim.core.router.costcalculators.TravelDisutilityFactory, annotation=@com.google.inject.name.Named(value=ride)], source=org.matsim.run.RunBerlinScenario$2.install(RunBerlinScenario.java:98), scope=Scopes.NO_SCOPE, target=Key[type=org.matsim.core.router.costcalculators.TravelDisutilityFactory, annotation=@com.google.inject.name.Named(value=car)]}
2018-09-04 11:47:11,421  INFO Injector:96 
2018-09-04 11:47:11,421  INFO Injector:85 org.matsim.core.router.RoutingModule @com.google.inject.name.Named(value=pt)
2018-09-04 11:47:11,421  INFO Injector:86   --> provider: Key[type=ch.sbb.matsim.routing.pt.raptor.SwissRailRaptorRoutingModuleProvider, annotation=[none]]
2018-09-04 11:47:11,422  INFO Injector:87   --> source: ch.sbb.matsim.routing.pt.raptor.SwissRailRaptorModule.install(SwissRailRaptorModule.java:27)
2018-09-04 11:47:11,422  INFO Injector:89   --> scope: Scopes.NO_SCOPE
2018-09-04 11:47:11,422  INFO Injector:94   ==full==> ProviderKeyBinding{key=Key[type=org.matsim.core.router.RoutingModule, annotation=@com.google.inject.name.Named(value=pt)], source=ch.sbb.matsim.routing.pt.raptor.SwissRailRaptorModule.install(SwissRailRaptorModule.java:27), scope=Scopes.NO_SCOPE, provider=Key[type=ch.sbb.matsim.routing.pt.raptor.SwissRailRaptorRoutingModuleProvider, annotation=[none]]}
2018-09-04 11:47:11,422  INFO Injector:96 
2018-09-04 11:47:11,422  INFO Injector:85 org.matsim.core.router.RoutingModule @com.google.inject.name.Named(value=transit_walk)
2018-09-04 11:47:11,422  INFO Injector:86   --> provider: FactoryProxy{key=Key[type=org.matsim.core.router.RoutingModule, annotation=@com.google.inject.name.Named(value=transit_walk)], provider=org.matsim.core.router.BeelineTeleportationRouting@682b2fa}
2018-09-04 11:47:11,422  INFO Injector:87   --> source: ch.sbb.matsim.routing.pt.raptor.SwissRailRaptorModule.install(SwissRailRaptorModule.java:29)
2018-09-04 11:47:11,422  INFO Injector:89   --> scope: Scopes.NO_SCOPE
2018-09-04 11:47:11,422  INFO Injector:92   --> target: Key[type=org.matsim.core.router.RoutingModule, annotation=@com.google.inject.name.Named(value=walk)]
2018-09-04 11:47:11,422  INFO Injector:94   ==full==> LinkedKeyBinding{key=Key[type=org.matsim.core.router.RoutingModule, annotation=@com.google.inject.name.Named(value=transit_walk)], source=ch.sbb.matsim.routing.pt.raptor.SwissRailRaptorModule.install(SwissRailRaptorModule.java:29), scope=Scopes.NO_SCOPE, target=Key[type=org.matsim.core.router.RoutingModule, annotation=@com.google.inject.name.Named(value=walk)]}
2018-09-04 11:47:11,422  INFO Injector:96 
2018-09-04 11:47:11,422  INFO Injector:85 org.matsim.api.core.v01.Scenario 
2018-09-04 11:47:11,422  INFO Injector:86   --> provider: of(org.matsim.core.scenario.MutableScenario@f0da945)
2018-09-04 11:47:11,422  INFO Injector:87   --> source: org.matsim.core.scenario.ScenarioByInstanceModule.install(ScenarioByInstanceModule.java:31)
2018-09-04 11:47:11,422  INFO Injector:89   --> scope: eager singleton
2018-09-04 11:47:11,423  INFO Injector:94   ==full==> InstanceBinding{key=Key[type=org.matsim.api.core.v01.Scenario, annotation=[none]], source=org.matsim.core.scenario.ScenarioByInstanceModule.install(ScenarioByInstanceModule.java:31), instance=org.matsim.core.scenario.MutableScenario@f0da945}
2018-09-04 11:47:11,423  INFO Injector:96 
2018-09-04 11:47:11,423  INFO Injector:85 org.matsim.pt.transitSchedule.api.TransitSchedule 
2018-09-04 11:47:11,423  INFO Injector:86   --> provider: Key[type=org.matsim.core.scenario.ScenarioByInstanceModule$TransitScheduleProvider, annotation=[none]]
2018-09-04 11:47:11,423  INFO Injector:87   --> source: org.matsim.core.scenario.ScenarioByInstanceModule.install(ScenarioByInstanceModule.java:33)
2018-09-04 11:47:11,423  INFO Injector:89   --> scope: Scopes.NO_SCOPE
2018-09-04 11:47:11,423  INFO Injector:94   ==full==> ProviderKeyBinding{key=Key[type=org.matsim.pt.transitSchedule.api.TransitSchedule, annotation=[none]], source=org.matsim.core.scenario.ScenarioByInstanceModule.install(ScenarioByInstanceModule.java:33), scope=Scopes.NO_SCOPE, provider=Key[type=org.matsim.core.scenario.ScenarioByInstanceModule$TransitScheduleProvider, annotation=[none]]}
2018-09-04 11:47:11,423  INFO Injector:96 
2018-09-04 11:47:11,423  INFO Injector:85 org.matsim.vehicles.Vehicles 
2018-09-04 11:47:11,423  INFO Injector:86   --> provider: Key[type=org.matsim.core.scenario.ScenarioByInstanceModule$TransitVehiclesProvider, annotation=[none]]
2018-09-04 11:47:11,423  INFO Injector:87   --> source: org.matsim.core.scenario.ScenarioByInstanceModule.install(ScenarioByInstanceModule.java:34)
2018-09-04 11:47:11,423  INFO Injector:89   --> scope: Scopes.NO_SCOPE
2018-09-04 11:47:11,423  INFO Injector:94   ==full==> ProviderKeyBinding{key=Key[type=org.matsim.vehicles.Vehicles, annotation=@org.matsim.pt.transitSchedule.api.Transit], source=org.matsim.core.scenario.ScenarioByInstanceModule.install(ScenarioByInstanceModule.java:34), scope=Scopes.NO_SCOPE, provider=Key[type=org.matsim.core.scenario.ScenarioByInstanceModule$TransitVehiclesProvider, annotation=[none]]}
2018-09-04 11:47:11,423  INFO Injector:96 
2018-09-04 11:47:11,423  INFO Injector:85 org.matsim.households.Households 
2018-09-04 11:47:11,425  INFO Injector:86   --> provider: @Provides org.matsim.core.scenario.ScenarioByInstanceModule.provideHouseholds(ScenarioByInstanceModule.java:56)
2018-09-04 11:47:11,425  INFO Injector:87   --> source: org.matsim.households.Households org.matsim.core.scenario.ScenarioByInstanceModule.provideHouseholds(org.matsim.api.core.v01.Scenario)
2018-09-04 11:47:11,425  INFO Injector:89   --> scope: Scopes.NO_SCOPE
2018-09-04 11:47:11,425  INFO Injector:94   ==full==> ProviderInstanceBinding{key=Key[type=org.matsim.households.Households, annotation=[none]], source=org.matsim.households.Households org.matsim.core.scenario.ScenarioByInstanceModule.provideHouseholds(org.matsim.api.core.v01.Scenario), scope=Scopes.NO_SCOPE, provider=@Provides org.matsim.core.scenario.ScenarioByInstanceModule.provideHouseholds(ScenarioByInstanceModule.java:56)}
2018-09-04 11:47:11,426  INFO Injector:96 
2018-09-04 11:47:11,426  INFO Injector:85 org.matsim.vehicles.Vehicles 
2018-09-04 11:47:11,426  INFO Injector:86   --> provider: @Provides org.matsim.core.scenario.ScenarioByInstanceModule.provideVehicles(ScenarioByInstanceModule.java:61)
2018-09-04 11:47:11,426  INFO Injector:87   --> source: org.matsim.vehicles.Vehicles org.matsim.core.scenario.ScenarioByInstanceModule.provideVehicles(org.matsim.api.core.v01.Scenario)
2018-09-04 11:47:11,426  INFO Injector:89   --> scope: Scopes.NO_SCOPE
2018-09-04 11:47:11,426  INFO Injector:94   ==full==> ProviderInstanceBinding{key=Key[type=org.matsim.vehicles.Vehicles, annotation=[none]], source=org.matsim.vehicles.Vehicles org.matsim.core.scenario.ScenarioByInstanceModule.provideVehicles(org.matsim.api.core.v01.Scenario), scope=Scopes.NO_SCOPE, provider=@Provides org.matsim.core.scenario.ScenarioByInstanceModule.provideVehicles(ScenarioByInstanceModule.java:61)}
2018-09-04 11:47:11,426  INFO Injector:96 
2018-09-04 11:47:11,426  INFO Injector:85 org.matsim.lanes.Lanes 
2018-09-04 11:47:11,426  INFO Injector:86   --> provider: @Provides org.matsim.core.scenario.ScenarioByInstanceModule.provideLanes(ScenarioByInstanceModule.java:66)
2018-09-04 11:47:11,426  INFO Injector:87   --> source: org.matsim.lanes.Lanes org.matsim.core.scenario.ScenarioByInstanceModule.provideLanes(org.matsim.api.core.v01.Scenario)
2018-09-04 11:47:11,426  INFO Injector:89   --> scope: Scopes.NO_SCOPE
2018-09-04 11:47:11,426  INFO Injector:94   ==full==> ProviderInstanceBinding{key=Key[type=org.matsim.lanes.Lanes, annotation=[none]], source=org.matsim.lanes.Lanes org.matsim.core.scenario.ScenarioByInstanceModule.provideLanes(org.matsim.api.core.v01.Scenario), scope=Scopes.NO_SCOPE, provider=@Provides org.matsim.core.scenario.ScenarioByInstanceModule.provideLanes(ScenarioByInstanceModule.java:66)}
2018-09-04 11:47:11,426  INFO Injector:96 
2018-09-04 11:47:11,426  INFO Injector:85 org.matsim.api.core.v01.population.Population 
2018-09-04 11:47:11,426  INFO Injector:86   --> provider: @Provides org.matsim.core.scenario.ScenarioByInstanceModule.providePopulation(ScenarioByInstanceModule.java:43)
2018-09-04 11:47:11,426  INFO Injector:87   --> source: org.matsim.api.core.v01.population.Population org.matsim.core.scenario.ScenarioByInstanceModule.providePopulation(org.matsim.api.core.v01.Scenario)
2018-09-04 11:47:11,427  INFO Injector:89   --> scope: Scopes.NO_SCOPE
2018-09-04 11:47:11,427  INFO Injector:94   ==full==> ProviderInstanceBinding{key=Key[type=org.matsim.api.core.v01.population.Population, annotation=[none]], source=org.matsim.api.core.v01.population.Population org.matsim.core.scenario.ScenarioByInstanceModule.providePopulation(org.matsim.api.core.v01.Scenario), scope=Scopes.NO_SCOPE, provider=@Provides org.matsim.core.scenario.ScenarioByInstanceModule.providePopulation(ScenarioByInstanceModule.java:43)}
2018-09-04 11:47:11,427  INFO Injector:96 
2018-09-04 11:47:11,427  INFO Injector:85 org.matsim.api.core.v01.population.PopulationFactory 
2018-09-04 11:47:11,427  INFO Injector:86   --> provider: @Provides org.matsim.core.scenario.ScenarioByInstanceModule.providePopulationFactory(ScenarioByInstanceModule.java:47)
2018-09-04 11:47:11,427  INFO Injector:87   --> source: org.matsim.api.core.v01.population.PopulationFactory org.matsim.core.scenario.ScenarioByInstanceModule.providePopulationFactory(org.matsim.api.core.v01.population.Population)
2018-09-04 11:47:11,427  INFO Injector:89   --> scope: Scopes.NO_SCOPE
2018-09-04 11:47:11,427  INFO Injector:94   ==full==> ProviderInstanceBinding{key=Key[type=org.matsim.api.core.v01.population.PopulationFactory, annotation=[none]], source=org.matsim.api.core.v01.population.PopulationFactory org.matsim.core.scenario.ScenarioByInstanceModule.providePopulationFactory(org.matsim.api.core.v01.population.Population), scope=Scopes.NO_SCOPE, provider=@Provides org.matsim.core.scenario.ScenarioByInstanceModule.providePopulationFactory(ScenarioByInstanceModule.java:47)}
2018-09-04 11:47:11,427  INFO Injector:96 
2018-09-04 11:47:11,427  INFO Injector:85 org.matsim.facilities.ActivityFacilities 
2018-09-04 11:47:11,427  INFO Injector:86   --> provider: @Provides org.matsim.core.scenario.ScenarioByInstanceModule.provideActivityFacilities(ScenarioByInstanceModule.java:51)
2018-09-04 11:47:11,427  INFO Injector:87   --> source: org.matsim.facilities.ActivityFacilities org.matsim.core.scenario.ScenarioByInstanceModule.provideActivityFacilities(org.matsim.api.core.v01.Scenario)
2018-09-04 11:47:11,427  INFO Injector:89   --> scope: Scopes.NO_SCOPE
2018-09-04 11:47:11,427  INFO Injector:94   ==full==> ProviderInstanceBinding{key=Key[type=org.matsim.facilities.ActivityFacilities, annotation=[none]], source=org.matsim.facilities.ActivityFacilities org.matsim.core.scenario.ScenarioByInstanceModule.provideActivityFacilities(org.matsim.api.core.v01.Scenario), scope=Scopes.NO_SCOPE, provider=@Provides org.matsim.core.scenario.ScenarioByInstanceModule.provideActivityFacilities(ScenarioByInstanceModule.java:51)}
2018-09-04 11:47:11,427  INFO Injector:96 
2018-09-04 11:47:11,427  INFO Injector:85 org.matsim.api.core.v01.network.Network 
2018-09-04 11:47:11,427  INFO Injector:86   --> provider: @Provides org.matsim.core.scenario.ScenarioByInstanceModule.provideNetwork(ScenarioByInstanceModule.java:39)
2018-09-04 11:47:11,428  INFO Injector:87   --> source: org.matsim.api.core.v01.network.Network org.matsim.core.scenario.ScenarioByInstanceModule.provideNetwork(org.matsim.api.core.v01.Scenario)
2018-09-04 11:47:11,428  INFO Injector:89   --> scope: Scopes.NO_SCOPE
2018-09-04 11:47:11,428  INFO Injector:94   ==full==> ProviderInstanceBinding{key=Key[type=org.matsim.api.core.v01.network.Network, annotation=[none]], source=org.matsim.api.core.v01.network.Network org.matsim.core.scenario.ScenarioByInstanceModule.provideNetwork(org.matsim.api.core.v01.Scenario), scope=Scopes.NO_SCOPE, provider=@Provides org.matsim.core.scenario.ScenarioByInstanceModule.provideNetwork(ScenarioByInstanceModule.java:39)}
2018-09-04 11:47:11,428  INFO Injector:96 
2018-09-04 11:47:11,428  INFO Injector:85 org.matsim.core.controler.ControlerI 
2018-09-04 11:47:11,428  INFO Injector:86   --> provider: FactoryProxy{key=Key[type=org.matsim.core.controler.ControlerI, annotation=[none]], provider=com.google.inject.internal.ConstructorBindingImpl$Factory@771a660}[Scopes.SINGLETON]
2018-09-04 11:47:11,428  INFO Injector:87   --> source: org.matsim.core.controler.NewControlerModule.install(NewControlerModule.java:8)
2018-09-04 11:47:11,428  INFO Injector:89   --> scope: eager singleton
2018-09-04 11:47:11,428  INFO Injector:92   --> target: Key[type=org.matsim.core.controler.NewControler, annotation=[none]]
2018-09-04 11:47:11,428  INFO Injector:94   ==full==> LinkedKeyBinding{key=Key[type=org.matsim.core.controler.ControlerI, annotation=[none]], source=org.matsim.core.controler.NewControlerModule.install(NewControlerModule.java:8), scope=eager singleton, target=Key[type=org.matsim.core.controler.NewControler, annotation=[none]]}
2018-09-04 11:47:11,428  INFO Injector:96 
2018-09-04 11:47:11,428  INFO Injector:85 org.matsim.core.controler.ControlerListenerManager 
2018-09-04 11:47:11,429  INFO Injector:86   --> provider: FactoryProxy{key=Key[type=org.matsim.core.controler.ControlerListenerManager, annotation=[none]], provider=com.google.inject.internal.ConstructorBindingImpl$Factory@534a5a98[Scopes.SINGLETON]}
2018-09-04 11:47:11,429  INFO Injector:87   --> source: org.matsim.core.controler.NewControlerModule.install(NewControlerModule.java:10)
2018-09-04 11:47:11,429  INFO Injector:89   --> scope: Scopes.NO_SCOPE
2018-09-04 11:47:11,429  INFO Injector:92   --> target: Key[type=org.matsim.core.controler.ControlerListenerManagerImpl, annotation=[none]]
2018-09-04 11:47:11,429  INFO Injector:94   ==full==> LinkedKeyBinding{key=Key[type=org.matsim.core.controler.ControlerListenerManager, annotation=[none]], source=org.matsim.core.controler.NewControlerModule.install(NewControlerModule.java:10), scope=Scopes.NO_SCOPE, target=Key[type=org.matsim.core.controler.ControlerListenerManagerImpl, annotation=[none]]}
2018-09-04 11:47:11,429  INFO Injector:96 
2018-09-04 11:47:11,429  INFO Injector:85 org.matsim.core.controler.TerminationCriterion 
2018-09-04 11:47:11,429  INFO Injector:86   --> provider: FactoryProxy{key=Key[type=org.matsim.core.controler.TerminationCriterion, annotation=[none]], provider=com.google.inject.internal.ConstructorBindingImpl$Factory@2e3967ea}
2018-09-04 11:47:11,429  INFO Injector:87   --> source: org.matsim.core.controler.NewControlerModule.install(NewControlerModule.java:14)
2018-09-04 11:47:11,429  INFO Injector:89   --> scope: Scopes.NO_SCOPE
2018-09-04 11:47:11,429  INFO Injector:92   --> target: Key[type=org.matsim.core.controler.TerminateAtFixedIterationNumber, annotation=[none]]
2018-09-04 11:47:11,429  INFO Injector:94   ==full==> LinkedKeyBinding{key=Key[type=org.matsim.core.controler.TerminationCriterion, annotation=[none]], source=org.matsim.core.controler.NewControlerModule.install(NewControlerModule.java:14), scope=Scopes.NO_SCOPE, target=Key[type=org.matsim.core.controler.TerminateAtFixedIterationNumber, annotation=[none]]}
2018-09-04 11:47:11,429  INFO Injector:96 
2018-09-04 11:47:11,429  INFO Injector:85 org.matsim.core.controler.MatsimServices 
2018-09-04 11:47:11,429  INFO Injector:86   --> provider: FactoryProxy{key=Key[type=org.matsim.core.controler.MatsimServices, annotation=[none]], provider=com.google.inject.internal.ConstructorBindingImpl$Factory@52719fb6}
2018-09-04 11:47:11,429  INFO Injector:87   --> source: org.matsim.core.controler.NewControlerModule.install(NewControlerModule.java:15)
2018-09-04 11:47:11,429  INFO Injector:89   --> scope: Scopes.NO_SCOPE
2018-09-04 11:47:11,430  INFO Injector:92   --> target: Key[type=org.matsim.core.controler.MatsimServicesImpl, annotation=[none]]
2018-09-04 11:47:11,430  INFO Injector:94   ==full==> LinkedKeyBinding{key=Key[type=org.matsim.core.controler.MatsimServices, annotation=[none]], source=org.matsim.core.controler.NewControlerModule.install(NewControlerModule.java:15), scope=Scopes.NO_SCOPE, target=Key[type=org.matsim.core.controler.MatsimServicesImpl, annotation=[none]]}
2018-09-04 11:47:11,430  INFO Injector:96 
2018-09-04 11:47:11,430  INFO Injector:85 org.matsim.core.controler.IterationCounter 
2018-09-04 11:47:11,430  INFO Injector:86   --> provider: FactoryProxy{key=Key[type=org.matsim.core.controler.IterationCounter, annotation=[none]], provider=com.google.inject.internal.ConstructorBindingImpl$Factory@52719fb6}
2018-09-04 11:47:11,430  INFO Injector:87   --> source: org.matsim.core.controler.NewControlerModule.install(NewControlerModule.java:17)
2018-09-04 11:47:11,430  INFO Injector:89   --> scope: Scopes.NO_SCOPE
2018-09-04 11:47:11,430  INFO Injector:92   --> target: Key[type=org.matsim.core.controler.MatsimServicesImpl, annotation=[none]]
2018-09-04 11:47:11,430  INFO Injector:94   ==full==> LinkedKeyBinding{key=Key[type=org.matsim.core.controler.IterationCounter, annotation=[none]], source=org.matsim.core.controler.NewControlerModule.install(NewControlerModule.java:17), scope=Scopes.NO_SCOPE, target=Key[type=org.matsim.core.controler.MatsimServicesImpl, annotation=[none]]}
2018-09-04 11:47:11,430  INFO Injector:96 
2018-09-04 11:47:11,430  INFO Injector:85 org.matsim.core.controler.PrepareForSim 
2018-09-04 11:47:11,430  INFO Injector:86   --> provider: FactoryProxy{key=Key[type=org.matsim.core.controler.PrepareForSim, annotation=[none]], provider=com.google.inject.internal.ConstructorBindingImpl$Factory@38cee291}
2018-09-04 11:47:11,430  INFO Injector:87   --> source: org.matsim.core.controler.NewControlerModule.install(NewControlerModule.java:21)
2018-09-04 11:47:11,430  INFO Injector:89   --> scope: Scopes.NO_SCOPE
2018-09-04 11:47:11,430  INFO Injector:92   --> target: Key[type=org.matsim.core.controler.PrepareForSimImpl, annotation=[none]]
2018-09-04 11:47:11,430  INFO Injector:94   ==full==> LinkedKeyBinding{key=Key[type=org.matsim.core.controler.PrepareForSim, annotation=[none]], source=org.matsim.core.controler.NewControlerModule.install(NewControlerModule.java:21), scope=Scopes.NO_SCOPE, target=Key[type=org.matsim.core.controler.PrepareForSimImpl, annotation=[none]]}
2018-09-04 11:47:11,430  INFO Injector:96 
2018-09-04 11:47:11,431  INFO Injector:85 org.matsim.core.controler.PrepareForMobsim 
2018-09-04 11:47:11,431  INFO Injector:86   --> provider: FactoryProxy{key=Key[type=org.matsim.core.controler.PrepareForMobsim, annotation=[none]], provider=com.google.inject.internal.ConstructorBindingImpl$Factory@13e344d}
2018-09-04 11:47:11,431  INFO Injector:87   --> source: org.matsim.core.controler.NewControlerModule.install(NewControlerModule.java:22)
2018-09-04 11:47:11,431  INFO Injector:89   --> scope: Scopes.NO_SCOPE
2018-09-04 11:47:11,431  INFO Injector:92   --> target: Key[type=org.matsim.core.controler.PrepareForMobsimImpl, annotation=[none]]
2018-09-04 11:47:11,431  INFO Injector:94   ==full==> LinkedKeyBinding{key=Key[type=org.matsim.core.controler.PrepareForMobsim, annotation=[none]], source=org.matsim.core.controler.NewControlerModule.install(NewControlerModule.java:22), scope=Scopes.NO_SCOPE, target=Key[type=org.matsim.core.controler.PrepareForMobsimImpl, annotation=[none]]}
2018-09-04 11:47:11,431  INFO Injector:96 
2018-09-04 11:47:11,431  INFO Injector:85 org.matsim.core.controler.corelisteners.PlansScoring 
2018-09-04 11:47:11,431  INFO Injector:86   --> provider: FactoryProxy{key=Key[type=org.matsim.core.controler.corelisteners.PlansScoring, annotation=[none]], provider=com.google.inject.internal.ConstructorBindingImpl$Factory@368247b9[Scopes.SINGLETON]}
2018-09-04 11:47:11,431  INFO Injector:87   --> source: org.matsim.core.scoring.PlansScoringModule.install(PlansScoringModule.java:11)
2018-09-04 11:47:11,431  INFO Injector:89   --> scope: Scopes.NO_SCOPE
2018-09-04 11:47:11,431  INFO Injector:92   --> target: Key[type=org.matsim.core.scoring.PlansScoringImpl, annotation=[none]]
2018-09-04 11:47:11,431  INFO Injector:94   ==full==> LinkedKeyBinding{key=Key[type=org.matsim.core.controler.corelisteners.PlansScoring, annotation=[none]], source=org.matsim.core.scoring.PlansScoringModule.install(PlansScoringModule.java:11), scope=Scopes.NO_SCOPE, target=Key[type=org.matsim.core.scoring.PlansScoringImpl, annotation=[none]]}
2018-09-04 11:47:11,432  INFO Injector:96 
2018-09-04 11:47:11,432  INFO Injector:85 org.matsim.core.controler.corelisteners.PlansReplanning 
2018-09-04 11:47:11,432  INFO Injector:86   --> provider: FactoryProxy{key=Key[type=org.matsim.core.controler.corelisteners.PlansReplanning, annotation=[none]], provider=com.google.inject.internal.ConstructorBindingImpl$Factory@4145bad8[Scopes.SINGLETON]}
2018-09-04 11:47:11,432  INFO Injector:87   --> source: org.matsim.core.controler.corelisteners.ControlerDefaultCoreListenersModule.install(ControlerDefaultCoreListenersModule.java:38)
2018-09-04 11:47:11,432  INFO Injector:89   --> scope: Scopes.NO_SCOPE
2018-09-04 11:47:11,432  INFO Injector:92   --> target: Key[type=org.matsim.core.controler.corelisteners.PlansReplanningImpl, annotation=[none]]
2018-09-04 11:47:11,432  INFO Injector:94   ==full==> LinkedKeyBinding{key=Key[type=org.matsim.core.controler.corelisteners.PlansReplanning, annotation=[none]], source=org.matsim.core.controler.corelisteners.ControlerDefaultCoreListenersModule.install(ControlerDefaultCoreListenersModule.java:38), scope=Scopes.NO_SCOPE, target=Key[type=org.matsim.core.controler.corelisteners.PlansReplanningImpl, annotation=[none]]}
2018-09-04 11:47:11,432  INFO Injector:96 
2018-09-04 11:47:11,432  INFO Injector:85 org.matsim.core.controler.corelisteners.PlansDumping 
2018-09-04 11:47:11,432  INFO Injector:86   --> provider: FactoryProxy{key=Key[type=org.matsim.core.controler.corelisteners.PlansDumping, annotation=[none]], provider=com.google.inject.internal.ConstructorBindingImpl$Factory@2ddc9a9f[Scopes.SINGLETON]}
2018-09-04 11:47:11,432  INFO Injector:87   --> source: org.matsim.core.controler.corelisteners.ControlerDefaultCoreListenersModule.install(ControlerDefaultCoreListenersModule.java:39)
2018-09-04 11:47:11,432  INFO Injector:89   --> scope: Scopes.NO_SCOPE
2018-09-04 11:47:11,433  INFO Injector:92   --> target: Key[type=org.matsim.core.controler.corelisteners.PlansDumpingImpl, annotation=[none]]
2018-09-04 11:47:11,433  INFO Injector:94   ==full==> LinkedKeyBinding{key=Key[type=org.matsim.core.controler.corelisteners.PlansDumping, annotation=[none]], source=org.matsim.core.controler.corelisteners.ControlerDefaultCoreListenersModule.install(ControlerDefaultCoreListenersModule.java:39), scope=Scopes.NO_SCOPE, target=Key[type=org.matsim.core.controler.corelisteners.PlansDumpingImpl, annotation=[none]]}
2018-09-04 11:47:11,433  INFO Injector:96 
2018-09-04 11:47:11,433  INFO Injector:85 org.matsim.core.controler.corelisteners.EventsHandling 
2018-09-04 11:47:11,433  INFO Injector:86   --> provider: FactoryProxy{key=Key[type=org.matsim.core.controler.corelisteners.EventsHandling, annotation=[none]], provider=com.google.inject.internal.ConstructorBindingImpl$Factory@644baf4a[Scopes.SINGLETON]}
2018-09-04 11:47:11,433  INFO Injector:87   --> source: org.matsim.core.controler.corelisteners.ControlerDefaultCoreListenersModule.install(ControlerDefaultCoreListenersModule.java:40)
2018-09-04 11:47:11,433  INFO Injector:89   --> scope: Scopes.NO_SCOPE
2018-09-04 11:47:11,433  INFO Injector:92   --> target: Key[type=org.matsim.core.controler.corelisteners.EventsHandlingImpl, annotation=[none]]
2018-09-04 11:47:11,433  INFO Injector:94   ==full==> LinkedKeyBinding{key=Key[type=org.matsim.core.controler.corelisteners.EventsHandling, annotation=[none]], source=org.matsim.core.controler.corelisteners.ControlerDefaultCoreListenersModule.install(ControlerDefaultCoreListenersModule.java:40), scope=Scopes.NO_SCOPE, target=Key[type=org.matsim.core.controler.corelisteners.EventsHandlingImpl, annotation=[none]]}
2018-09-04 11:47:11,433  INFO Injector:96 
2018-09-04 11:47:11,433  INFO Injector:85 org.matsim.core.controler.corelisteners.DumpDataAtEnd 
2018-09-04 11:47:11,434  INFO Injector:86   --> provider: FactoryProxy{key=Key[type=org.matsim.core.controler.corelisteners.DumpDataAtEnd, annotation=[none]], provider=com.google.inject.internal.ConstructorBindingImpl$Factory@6e6f2380[Scopes.SINGLETON]}
2018-09-04 11:47:11,434  INFO Injector:87   --> source: org.matsim.core.controler.corelisteners.ControlerDefaultCoreListenersModule.install(ControlerDefaultCoreListenersModule.java:41)
2018-09-04 11:47:11,434  INFO Injector:89   --> scope: Scopes.NO_SCOPE
2018-09-04 11:47:11,434  INFO Injector:92   --> target: Key[type=org.matsim.core.controler.corelisteners.DumpDataAtEndImpl, annotation=[none]]
2018-09-04 11:47:11,434  INFO Injector:94   ==full==> LinkedKeyBinding{key=Key[type=org.matsim.core.controler.corelisteners.DumpDataAtEnd, annotation=[none]], source=org.matsim.core.controler.corelisteners.ControlerDefaultCoreListenersModule.install(ControlerDefaultCoreListenersModule.java:41), scope=Scopes.NO_SCOPE, target=Key[type=org.matsim.core.controler.corelisteners.DumpDataAtEndImpl, annotation=[none]]}
2018-09-04 11:47:11,434  INFO Injector:96 
2018-09-04 11:47:11,434  INFO Injector:85 org.matsim.core.api.experimental.events.EventsManager 
2018-09-04 11:47:11,434  INFO Injector:86   --> provider: FactoryProxy{key=Key[type=org.matsim.core.api.experimental.events.EventsManager, annotation=[none]], provider=com.google.inject.internal.ConstructorBindingImpl$Factory@6e9175d8}[Scopes.SINGLETON]
2018-09-04 11:47:11,434  INFO Injector:87   --> source: org.matsim.core.events.EventsManagerModule.install(EventsManagerModule.java:23)
2018-09-04 11:47:11,434  INFO Injector:89   --> scope: eager singleton
2018-09-04 11:47:11,434  INFO Injector:92   --> target: Key[type=org.matsim.core.events.SimStepParallelEventsManagerImpl, annotation=[none]]
2018-09-04 11:47:11,434  INFO Injector:94   ==full==> LinkedKeyBinding{key=Key[type=org.matsim.core.api.experimental.events.EventsManager, annotation=[none]], source=org.matsim.core.events.EventsManagerModule.install(EventsManagerModule.java:23), scope=eager singleton, target=Key[type=org.matsim.core.events.SimStepParallelEventsManagerImpl, annotation=[none]]}
2018-09-04 11:47:11,434  INFO Injector:96 
2018-09-04 11:47:11,434  INFO Injector:85 org.matsim.core.mobsim.qsim.components.QSimComponents 
2018-09-04 11:47:11,435  INFO Injector:86   --> provider: @Provides org.matsim.core.mobsim.qsim.components.QSimComponentsModule.provideDefaultQSimComponentsConfiguration(QSimComponentsModule.java:15)[Scopes.SINGLETON]
2018-09-04 11:47:11,435  INFO Injector:87   --> source: public org.matsim.core.mobsim.qsim.components.QSimComponents org.matsim.core.mobsim.qsim.components.QSimComponentsModule.provideDefaultQSimComponentsConfiguration(org.matsim.core.config.Config)
2018-09-04 11:47:11,435  INFO Injector:89   --> scope: Scopes.SINGLETON
2018-09-04 11:47:11,435  INFO Injector:94   ==full==> ProviderInstanceBinding{key=Key[type=org.matsim.core.mobsim.qsim.components.QSimComponents, annotation=[none]], source=public org.matsim.core.mobsim.qsim.components.QSimComponents org.matsim.core.mobsim.qsim.components.QSimComponentsModule.provideDefaultQSimComponentsConfiguration(org.matsim.core.config.Config), scope=Scopes.SINGLETON, provider=@Provides org.matsim.core.mobsim.qsim.components.QSimComponentsModule.provideDefaultQSimComponentsConfiguration(QSimComponentsModule.java:15)}
2018-09-04 11:47:11,435  INFO Injector:96 
2018-09-04 11:47:11,435  INFO Injector:85 org.matsim.core.mobsim.qsim.AbstractQSimModule @com.google.inject.multibindings.Element(setName=,uniqueId=86, type=MULTIBINDER, keyType=)
2018-09-04 11:47:11,435  INFO Injector:86   --> provider: of(org.matsim.core.mobsim.qsim.messagequeueengine.MessageQueueModule@385e9564)
2018-09-04 11:47:11,435  INFO Injector:87   --> source: java.util.Arrays$ArrayList.forEach(Arrays.java:3880)
2018-09-04 11:47:11,435  INFO Injector:89   --> scope: eager singleton
2018-09-04 11:47:11,435  INFO Injector:94   ==full==> InstanceBinding{key=Key[type=org.matsim.core.mobsim.qsim.AbstractQSimModule, annotation=@com.google.inject.multibindings.Element(setName=,uniqueId=86, type=MULTIBINDER, keyType=)], source=java.util.Arrays$ArrayList.forEach(Arrays.java:3880), instance=org.matsim.core.mobsim.qsim.messagequeueengine.MessageQueueModule@385e9564}
2018-09-04 11:47:11,436  INFO Injector:96 
2018-09-04 11:47:11,436  INFO Injector:85 org.matsim.core.mobsim.qsim.AbstractQSimModule @com.google.inject.multibindings.Element(setName=,uniqueId=87, type=MULTIBINDER, keyType=)
2018-09-04 11:47:11,436  INFO Injector:86   --> provider: of(org.matsim.core.mobsim.qsim.ActivityEngineModule@5b94b04d)
2018-09-04 11:47:11,436  INFO Injector:87   --> source: java.util.Arrays$ArrayList.forEach(Arrays.java:3880)
2018-09-04 11:47:11,436  INFO Injector:89   --> scope: eager singleton
2018-09-04 11:47:11,436  INFO Injector:94   ==full==> InstanceBinding{key=Key[type=org.matsim.core.mobsim.qsim.AbstractQSimModule, annotation=@com.google.inject.multibindings.Element(setName=,uniqueId=87, type=MULTIBINDER, keyType=)], source=java.util.Arrays$ArrayList.forEach(Arrays.java:3880), instance=org.matsim.core.mobsim.qsim.ActivityEngineModule@5b94b04d}
2018-09-04 11:47:11,436  INFO Injector:96 
2018-09-04 11:47:11,436  INFO Injector:85 org.matsim.core.mobsim.qsim.AbstractQSimModule @com.google.inject.multibindings.Element(setName=,uniqueId=88, type=MULTIBINDER, keyType=)
2018-09-04 11:47:11,436  INFO Injector:86   --> provider: of(org.matsim.core.mobsim.qsim.qnetsimengine.QNetsimEngineModule@8c3b9d)
2018-09-04 11:47:11,436  INFO Injector:87   --> source: java.util.Arrays$ArrayList.forEach(Arrays.java:3880)
2018-09-04 11:47:11,436  INFO Injector:89   --> scope: eager singleton
2018-09-04 11:47:11,436  INFO Injector:94   ==full==> InstanceBinding{key=Key[type=org.matsim.core.mobsim.qsim.AbstractQSimModule, annotation=@com.google.inject.multibindings.Element(setName=,uniqueId=88, type=MULTIBINDER, keyType=)], source=java.util.Arrays$ArrayList.forEach(Arrays.java:3880), instance=org.matsim.core.mobsim.qsim.qnetsimengine.QNetsimEngineModule@8c3b9d}
2018-09-04 11:47:11,436  INFO Injector:96 
2018-09-04 11:47:11,436  INFO Injector:85 org.matsim.core.mobsim.qsim.AbstractQSimModule @com.google.inject.multibindings.Element(setName=,uniqueId=89, type=MULTIBINDER, keyType=)
2018-09-04 11:47:11,436  INFO Injector:86   --> provider: of(org.matsim.core.mobsim.qsim.TeleportationModule@4c39bec8)
2018-09-04 11:47:11,436  INFO Injector:87   --> source: java.util.Arrays$ArrayList.forEach(Arrays.java:3880)
2018-09-04 11:47:11,436  INFO Injector:89   --> scope: eager singleton
2018-09-04 11:47:11,436  INFO Injector:94   ==full==> InstanceBinding{key=Key[type=org.matsim.core.mobsim.qsim.AbstractQSimModule, annotation=@com.google.inject.multibindings.Element(setName=,uniqueId=89, type=MULTIBINDER, keyType=)], source=java.util.Arrays$ArrayList.forEach(Arrays.java:3880), instance=org.matsim.core.mobsim.qsim.TeleportationModule@4c39bec8}
2018-09-04 11:47:11,436  INFO Injector:96 
2018-09-04 11:47:11,436  INFO Injector:85 org.matsim.core.mobsim.qsim.AbstractQSimModule @com.google.inject.multibindings.Element(setName=,uniqueId=90, type=MULTIBINDER, keyType=)
2018-09-04 11:47:11,437  INFO Injector:86   --> provider: of(org.matsim.core.mobsim.qsim.PopulationModule@f79e)
2018-09-04 11:47:11,437  INFO Injector:87   --> source: java.util.Arrays$ArrayList.forEach(Arrays.java:3880)
2018-09-04 11:47:11,437  INFO Injector:89   --> scope: eager singleton
2018-09-04 11:47:11,437  INFO Injector:94   ==full==> InstanceBinding{key=Key[type=org.matsim.core.mobsim.qsim.AbstractQSimModule, annotation=@com.google.inject.multibindings.Element(setName=,uniqueId=90, type=MULTIBINDER, keyType=)], source=java.util.Arrays$ArrayList.forEach(Arrays.java:3880), instance=org.matsim.core.mobsim.qsim.PopulationModule@f79e}
2018-09-04 11:47:11,437  INFO Injector:96 
2018-09-04 11:47:11,437  INFO Injector:85 org.matsim.core.mobsim.qsim.AbstractQSimModule @com.google.inject.multibindings.Element(setName=,uniqueId=91, type=MULTIBINDER, keyType=)
2018-09-04 11:47:11,437  INFO Injector:86   --> provider: of(org.matsim.core.mobsim.qsim.changeeventsengine.NetworkChangeEventsModule@7ee8290b)
2018-09-04 11:47:11,437  INFO Injector:87   --> source: java.util.Arrays$ArrayList.forEach(Arrays.java:3880)
2018-09-04 11:47:11,437  INFO Injector:89   --> scope: eager singleton
2018-09-04 11:47:11,437  INFO Injector:94   ==full==> InstanceBinding{key=Key[type=org.matsim.core.mobsim.qsim.AbstractQSimModule, annotation=@com.google.inject.multibindings.Element(setName=,uniqueId=91, type=MULTIBINDER, keyType=)], source=java.util.Arrays$ArrayList.forEach(Arrays.java:3880), instance=org.matsim.core.mobsim.qsim.changeeventsengine.NetworkChangeEventsModule@7ee8290b}
2018-09-04 11:47:11,437  INFO Injector:96 
2018-09-04 11:47:11,437  INFO Injector:85 org.matsim.core.mobsim.qsim.AbstractQSimModule @com.google.inject.multibindings.Element(setName=,uniqueId=92, type=MULTIBINDER, keyType=)
2018-09-04 11:47:11,437  INFO Injector:86   --> provider: of(org.matsim.core.mobsim.qsim.pt.TransitEngineModule@1f59a598)
2018-09-04 11:47:11,438  INFO Injector:87   --> source: java.util.Arrays$ArrayList.forEach(Arrays.java:3880)
2018-09-04 11:47:11,438  INFO Injector:89   --> scope: eager singleton
2018-09-04 11:47:11,438  INFO Injector:94   ==full==> InstanceBinding{key=Key[type=org.matsim.core.mobsim.qsim.AbstractQSimModule, annotation=@com.google.inject.multibindings.Element(setName=,uniqueId=92, type=MULTIBINDER, keyType=)], source=java.util.Arrays$ArrayList.forEach(Arrays.java:3880), instance=org.matsim.core.mobsim.qsim.pt.TransitEngineModule@1f59a598}
2018-09-04 11:47:11,438  INFO Injector:96 
2018-09-04 11:47:11,438  INFO Injector:85 org.matsim.core.mobsim.framework.Mobsim 
2018-09-04 11:47:11,438  INFO Injector:86   --> provider: Key[type=org.matsim.core.mobsim.qsim.QSimProvider, annotation=[none]]
2018-09-04 11:47:11,438  INFO Injector:87   --> source: org.matsim.core.mobsim.qsim.QSimModule.install(QSimModule.java:59)
2018-09-04 11:47:11,438  INFO Injector:89   --> scope: Scopes.NO_SCOPE
2018-09-04 11:47:11,438  INFO Injector:94   ==full==> ProviderKeyBinding{key=Key[type=org.matsim.core.mobsim.framework.Mobsim, annotation=[none]], source=org.matsim.core.mobsim.qsim.QSimModule.install(QSimModule.java:59), scope=Scopes.NO_SCOPE, provider=Key[type=org.matsim.core.mobsim.qsim.QSimProvider, annotation=[none]]}
2018-09-04 11:47:11,438  INFO Injector:96 
2018-09-04 11:47:11,439  INFO Injector:85 org.matsim.core.mobsim.qsim.qnetsimengine.QNetworkFactory 
2018-09-04 11:47:11,439  INFO Injector:86   --> provider: FactoryProxy{key=Key[type=org.matsim.core.mobsim.qsim.qnetsimengine.QNetworkFactory, annotation=[none]], provider=com.google.inject.internal.ConstructorBindingImpl$Factory@1349883}
2018-09-04 11:47:11,439  INFO Injector:87   --> source: org.matsim.core.mobsim.qsim.QSimModule.install(QSimModule.java:63)
2018-09-04 11:47:11,439  INFO Injector:89   --> scope: Scopes.NO_SCOPE
2018-09-04 11:47:11,439  INFO Injector:92   --> target: Key[type=org.matsim.core.mobsim.qsim.qnetsimengine.DefaultQNetworkFactory, annotation=[none]]
2018-09-04 11:47:11,439  INFO Injector:94   ==full==> LinkedKeyBinding{key=Key[type=org.matsim.core.mobsim.qsim.qnetsimengine.QNetworkFactory, annotation=[none]], source=org.matsim.core.mobsim.qsim.QSimModule.install(QSimModule.java:63), scope=Scopes.NO_SCOPE, target=Key[type=org.matsim.core.mobsim.qsim.qnetsimengine.DefaultQNetworkFactory, annotation=[none]]}
2018-09-04 11:47:11,439  INFO Injector:96 
2018-09-04 11:47:11,439  INFO Injector:85 org.matsim.core.mobsim.qsim.pt.TransitStopHandlerFactory 
2018-09-04 11:47:11,439  INFO Injector:86   --> provider: FactoryProxy{key=Key[type=org.matsim.core.mobsim.qsim.pt.TransitStopHandlerFactory, annotation=[none]], provider=com.google.inject.internal.ConstructorBindingImpl$Factory@3ba987b8}
2018-09-04 11:47:11,439  INFO Injector:87   --> source: org.matsim.core.mobsim.qsim.QSimModule.install(QSimModule.java:67)
2018-09-04 11:47:11,439  INFO Injector:89   --> scope: Scopes.NO_SCOPE
2018-09-04 11:47:11,439  INFO Injector:92   --> target: Key[type=org.matsim.core.mobsim.qsim.pt.ComplexTransitStopHandlerFactory, annotation=[none]]
2018-09-04 11:47:11,439  INFO Injector:94   ==full==> LinkedKeyBinding{key=Key[type=org.matsim.core.mobsim.qsim.pt.TransitStopHandlerFactory, annotation=[none]], source=org.matsim.core.mobsim.qsim.QSimModule.install(QSimModule.java:67), scope=Scopes.NO_SCOPE, target=Key[type=org.matsim.core.mobsim.qsim.pt.ComplexTransitStopHandlerFactory, annotation=[none]]}
2018-09-04 11:47:11,439  INFO Injector:96 
2018-09-04 11:47:11,440  INFO Injector:85 org.matsim.core.trafficmonitoring.TravelTimeCalculator @com.google.inject.name.Named(value=car)
2018-09-04 11:47:11,440  INFO Injector:86   --> provider: org.matsim.core.trafficmonitoring.TravelTimeCalculatorModule$SingleModeTravelTimeCalculatorProvider@3fc2959f[Scopes.SINGLETON]
2018-09-04 11:47:11,440  INFO Injector:87   --> source: org.matsim.core.trafficmonitoring.TravelTimeCalculatorModule.install(TravelTimeCalculatorModule.java:62)
2018-09-04 11:47:11,440  INFO Injector:89   --> scope: Scopes.SINGLETON
2018-09-04 11:47:11,440  INFO Injector:94   ==full==> ProviderInstanceBinding{key=Key[type=org.matsim.core.trafficmonitoring.TravelTimeCalculator, annotation=@com.google.inject.name.Named(value=car)], source=org.matsim.core.trafficmonitoring.TravelTimeCalculatorModule.install(TravelTimeCalculatorModule.java:62), scope=Scopes.SINGLETON, provider=org.matsim.core.trafficmonitoring.TravelTimeCalculatorModule$SingleModeTravelTimeCalculatorProvider@3fc2959f}
2018-09-04 11:47:11,440  INFO Injector:96 
2018-09-04 11:47:11,440  INFO Injector:85 org.matsim.core.router.util.TravelTime @com.google.inject.name.Named(value=car)
2018-09-04 11:47:11,440  INFO Injector:86   --> provider: org.matsim.core.trafficmonitoring.TravelTimeCalculatorModule$1@5aa9e4eb
2018-09-04 11:47:11,440  INFO Injector:87   --> source: org.matsim.core.trafficmonitoring.TravelTimeCalculatorModule.install(TravelTimeCalculatorModule.java:65)
2018-09-04 11:47:11,440  INFO Injector:89   --> scope: Scopes.NO_SCOPE
2018-09-04 11:47:11,440  INFO Injector:94   ==full==> ProviderInstanceBinding{key=Key[type=org.matsim.core.router.util.TravelTime, annotation=@com.google.inject.name.Named(value=car)], source=org.matsim.core.trafficmonitoring.TravelTimeCalculatorModule.install(TravelTimeCalculatorModule.java:65), scope=Scopes.NO_SCOPE, provider=org.matsim.core.trafficmonitoring.TravelTimeCalculatorModule$1@5aa9e4eb}
2018-09-04 11:47:11,440  INFO Injector:96 
2018-09-04 11:47:11,440  INFO Injector:85 org.matsim.core.trafficmonitoring.TravelTimeCalculator @com.google.inject.name.Named(value=freight)
2018-09-04 11:47:11,441  INFO Injector:86   --> provider: org.matsim.core.trafficmonitoring.TravelTimeCalculatorModule$SingleModeTravelTimeCalculatorProvider@6989da5e[Scopes.SINGLETON]
2018-09-04 11:47:11,441  INFO Injector:87   --> source: org.matsim.core.trafficmonitoring.TravelTimeCalculatorModule.install(TravelTimeCalculatorModule.java:62)
2018-09-04 11:47:11,441  INFO Injector:89   --> scope: Scopes.SINGLETON
2018-09-04 11:47:11,441  INFO Injector:94   ==full==> ProviderInstanceBinding{key=Key[type=org.matsim.core.trafficmonitoring.TravelTimeCalculator, annotation=@com.google.inject.name.Named(value=freight)], source=org.matsim.core.trafficmonitoring.TravelTimeCalculatorModule.install(TravelTimeCalculatorModule.java:62), scope=Scopes.SINGLETON, provider=org.matsim.core.trafficmonitoring.TravelTimeCalculatorModule$SingleModeTravelTimeCalculatorProvider@6989da5e}
2018-09-04 11:47:11,441  INFO Injector:96 
2018-09-04 11:47:11,441  INFO Injector:85 org.matsim.core.router.util.TravelTime @com.google.inject.name.Named(value=freight)
2018-09-04 11:47:11,441  INFO Injector:86   --> provider: org.matsim.core.trafficmonitoring.TravelTimeCalculatorModule$1@385c9627
2018-09-04 11:47:11,441  INFO Injector:87   --> source: org.matsim.core.trafficmonitoring.TravelTimeCalculatorModule.install(TravelTimeCalculatorModule.java:65)
2018-09-04 11:47:11,441  INFO Injector:89   --> scope: Scopes.NO_SCOPE
2018-09-04 11:47:11,441  INFO Injector:94   ==full==> ProviderInstanceBinding{key=Key[type=org.matsim.core.router.util.TravelTime, annotation=@com.google.inject.name.Named(value=freight)], source=org.matsim.core.trafficmonitoring.TravelTimeCalculatorModule.install(TravelTimeCalculatorModule.java:65), scope=Scopes.NO_SCOPE, provider=org.matsim.core.trafficmonitoring.TravelTimeCalculatorModule$1@385c9627}
2018-09-04 11:47:11,441  INFO Injector:96 
2018-09-04 11:47:11,441  INFO Injector:85 org.matsim.core.router.costcalculators.TravelDisutilityFactory @com.google.inject.name.Named(value=car)
2018-09-04 11:47:11,441  INFO Injector:86   --> provider: of(org.matsim.core.router.costcalculators.RandomizingTimeDistanceTravelDisutilityFactory@342c38f8)
2018-09-04 11:47:11,441  INFO Injector:87   --> source: org.matsim.core.router.costcalculators.TravelDisutilityModule.install(TravelDisutilityModule.java:34)
2018-09-04 11:47:11,442  INFO Injector:89   --> scope: eager singleton
2018-09-04 11:47:11,442  INFO Injector:94   ==full==> InstanceBinding{key=Key[type=org.matsim.core.router.costcalculators.TravelDisutilityFactory, annotation=@com.google.inject.name.Named(value=car)], source=org.matsim.core.router.costcalculators.TravelDisutilityModule.install(TravelDisutilityModule.java:34), instance=org.matsim.core.router.costcalculators.RandomizingTimeDistanceTravelDisutilityFactory@342c38f8}
2018-09-04 11:47:11,442  INFO Injector:96 
2018-09-04 11:47:11,442  INFO Injector:85 org.matsim.core.router.costcalculators.TravelDisutilityFactory @com.google.inject.name.Named(value=freight)
2018-09-04 11:47:11,442  INFO Injector:86   --> provider: of(org.matsim.core.router.costcalculators.RandomizingTimeDistanceTravelDisutilityFactory@7ce026d3)
2018-09-04 11:47:11,442  INFO Injector:87   --> source: org.matsim.core.router.costcalculators.TravelDisutilityModule.install(TravelDisutilityModule.java:34)
2018-09-04 11:47:11,442  INFO Injector:89   --> scope: eager singleton
2018-09-04 11:47:11,442  INFO Injector:94   ==full==> InstanceBinding{key=Key[type=org.matsim.core.router.costcalculators.TravelDisutilityFactory, annotation=@com.google.inject.name.Named(value=freight)], source=org.matsim.core.router.costcalculators.TravelDisutilityModule.install(TravelDisutilityModule.java:34), instance=org.matsim.core.router.costcalculators.RandomizingTimeDistanceTravelDisutilityFactory@7ce026d3}
2018-09-04 11:47:11,442  INFO Injector:96 
2018-09-04 11:47:11,442  INFO Injector:85 org.matsim.core.scoring.ScoringFunctionFactory 
2018-09-04 11:47:11,442  INFO Injector:86   --> provider: FactoryProxy{key=Key[type=org.matsim.core.scoring.ScoringFunctionFactory, annotation=[none]], provider=com.google.inject.internal.ConstructorBindingImpl$Factory@6c284af}
2018-09-04 11:47:11,442  INFO Injector:87   --> source: org.matsim.core.scoring.functions.CharyparNagelScoringFunctionModule.install(CharyparNagelScoringFunctionModule.java:36)
2018-09-04 11:47:11,442  INFO Injector:89   --> scope: Scopes.NO_SCOPE
2018-09-04 11:47:11,442  INFO Injector:92   --> target: Key[type=org.matsim.core.scoring.functions.CharyparNagelScoringFunctionFactory, annotation=[none]]
2018-09-04 11:47:11,443  INFO Injector:94   ==full==> LinkedKeyBinding{key=Key[type=org.matsim.core.scoring.ScoringFunctionFactory, annotation=[none]], source=org.matsim.core.scoring.functions.CharyparNagelScoringFunctionModule.install(CharyparNagelScoringFunctionModule.java:36), scope=Scopes.NO_SCOPE, target=Key[type=org.matsim.core.scoring.functions.CharyparNagelScoringFunctionFactory, annotation=[none]]}
2018-09-04 11:47:11,443  INFO Injector:96 
2018-09-04 11:47:11,443  INFO Injector:85 org.matsim.core.scoring.functions.ScoringParametersForPerson 
2018-09-04 11:47:11,443  INFO Injector:86   --> provider: FactoryProxy{key=Key[type=org.matsim.core.scoring.functions.ScoringParametersForPerson, annotation=[none]], provider=com.google.inject.internal.ConstructorBindingImpl$Factory@221a3fa4}
2018-09-04 11:47:11,443  INFO Injector:87   --> source: org.matsim.core.scoring.functions.CharyparNagelScoringFunctionModule.install(CharyparNagelScoringFunctionModule.java:37)
2018-09-04 11:47:11,443  INFO Injector:89   --> scope: Scopes.NO_SCOPE
2018-09-04 11:47:11,443  INFO Injector:92   --> target: Key[type=org.matsim.core.scoring.functions.SubpopulationScoringParameters, annotation=[none]]
[...]
2018-09-04 11:48:52,895  INFO QNetsimEngine:347 SIMULATION (QNetsimEngine) AT 18:00:00 : #links=10432 #nodes=302
2018-09-04 11:48:52,895  INFO QSim:506 SIMULATION (NEW QSim) AT 18:00:00 : #Veh=35787 lost=0 simT=64800.0s realT=73s; (s/r): 887.6712328767123
2018-09-04 11:48:52,895  INFO Gbl:57 used RAM: 2849878408B = 2783084kB = 2717MB  free: 1785351800B = 1702MB  total: 4635230208B = 4420MB
2018-09-04 11:48:58,091  INFO QNetsimEngine:347 SIMULATION (QNetsimEngine) AT 19:00:00 : #links=9576 #nodes=282
2018-09-04 11:48:58,092  INFO QSim:506 SIMULATION (NEW QSim) AT 19:00:00 : #Veh=27180 lost=0 simT=68400.0s realT=78s; (s/r): 876.9230769230769
2018-09-04 11:48:58,092  INFO Gbl:57 used RAM: 2780751816B = 2715577kB = 2651MB  free: 1891178552B = 1803MB  total: 4671930368B = 4455MB
2018-09-04 11:49:02,647  INFO QNetsimEngine:347 SIMULATION (QNetsimEngine) AT 20:00:00 : #links=8548 #nodes=214
2018-09-04 11:49:02,647  INFO QSim:506 SIMULATION (NEW QSim) AT 20:00:00 : #Veh=19333 lost=0 simT=72000.0s realT=83s; (s/r): 867.4698795180723
2018-09-04 11:49:02,647  INFO Gbl:57 used RAM: 3377581024B = 3298418kB = 3221MB  free: 1294349344B = 1234MB  total: 4671930368B = 4455MB
2018-09-04 11:49:06,551  INFO QNetsimEngine:347 SIMULATION (QNetsimEngine) AT 21:00:00 : #links=6523 #nodes=170
2018-09-04 11:49:06,551  INFO QSim:506 SIMULATION (NEW QSim) AT 21:00:00 : #Veh=13073 lost=0 simT=75600.0s realT=87s; (s/r): 868.9655172413793
2018-09-04 11:49:06,551  INFO Gbl:57 used RAM: 3068719408B = 2996796kB = 2926MB  free: 1614745296B = 1539MB  total: 4683464704B = 4466MB
2018-09-04 11:49:07,196  INFO EventsManagerImpl:134  event # 16777216
2018-09-04 11:49:09,152  INFO QNetsimEngine:347 SIMULATION (QNetsimEngine) AT 22:00:00 : #links=4730 #nodes=115
2018-09-04 11:49:09,152  INFO QSim:506 SIMULATION (NEW QSim) AT 22:00:00 : #Veh=8728 lost=0 simT=79200.0s realT=89s; (s/r): 889.8876404494382
2018-09-04 11:49:09,153  INFO Gbl:57 used RAM: 3408387680B = 3328503kB = 3250MB  free: 1275077024B = 1216MB  total: 4683464704B = 4466MB
2018-09-04 11:49:11,227  INFO QNetsimEngine:347 SIMULATION (QNetsimEngine) AT 23:00:00 : #links=3398 #nodes=76
2018-09-04 11:49:11,227  INFO QSim:506 SIMULATION (NEW QSim) AT 23:00:00 : #Veh=5500 lost=0 simT=82800.0s realT=91s; (s/r): 909.8901098901099
2018-09-04 11:49:11,227  INFO Gbl:57 used RAM: 2848602128B = 2781838kB = 2716MB  free: 1788200944B = 1705MB  total: 4636803072B = 4422MB
2018-09-04 11:49:12,465  INFO QNetsimEngine:347 SIMULATION (QNetsimEngine) AT 24:00:00 : #links=2408 #nodes=45
2018-09-04 11:49:12,465  INFO QSim:506 SIMULATION (NEW QSim) AT 24:00:00 : #Veh=3221 lost=0 simT=86400.0s realT=93s; (s/r): 929.0322580645161
2018-09-04 11:49:12,465  INFO Gbl:57 used RAM: 3002359024B = 2931991kB = 2863MB  free: 1634444048B = 1558MB  total: 4636803072B = 4422MB
2018-09-04 11:49:13,275  INFO QNetsimEngine:347 SIMULATION (QNetsimEngine) AT 25:00:00 : #links=1243 #nodes=25
2018-09-04 11:49:13,275  INFO QSim:506 SIMULATION (NEW QSim) AT 25:00:00 : #Veh=1663 lost=0 simT=90000.0s realT=93s; (s/r): 967.741935483871
2018-09-04 11:49:13,275  INFO Gbl:57 used RAM: 3089250344B = 3016846kB = 2946MB  free: 1547552728B = 1475MB  total: 4636803072B = 4422MB
2018-09-04 11:49:13,805  INFO QNetsimEngine:347 SIMULATION (QNetsimEngine) AT 26:00:00 : #links=800 #nodes=18
2018-09-04 11:49:13,805  INFO QSim:506 SIMULATION (NEW QSim) AT 26:00:00 : #Veh=882 lost=0 simT=93600.0s realT=94s; (s/r): 995.7446808510638
2018-09-04 11:49:13,805  INFO Gbl:57 used RAM: 3142711056B = 3069053kB = 2997MB  free: 1494092016B = 1424MB  total: 4636803072B = 4422MB
2018-09-04 11:49:14,249  INFO QNetsimEngine:347 SIMULATION (QNetsimEngine) AT 27:00:00 : #links=680 #nodes=10
2018-09-04 11:49:14,249  INFO QSim:506 SIMULATION (NEW QSim) AT 27:00:00 : #Veh=308 lost=0 simT=97200.0s realT=94s; (s/r): 1034.0425531914893
2018-09-04 11:49:14,249  INFO Gbl:57 used RAM: 3179758024B = 3105232kB = 3032MB  free: 1457045048B = 1389MB  total: 4636803072B = 4422MB
2018-09-04 11:49:14,519  INFO QNetsimEngine:347 SIMULATION (QNetsimEngine) AT 28:00:00 : #links=92 #nodes=0
2018-09-04 11:49:14,519  INFO QSim:506 SIMULATION (NEW QSim) AT 28:00:00 : #Veh=67 lost=0 simT=100800.0s realT=95s; (s/r): 1061.0526315789473
2018-09-04 11:49:14,519  INFO Gbl:57 used RAM: 3187738488B = 3113025kB = 3040MB  free: 1449064584B = 1381MB  total: 4636803072B = 4422MB
2018-09-04 11:49:14,723  INFO QNetsimEngine:347 SIMULATION (QNetsimEngine) AT 29:00:00 : #links=38 #nodes=0
2018-09-04 11:49:14,723  INFO QSim:506 SIMULATION (NEW QSim) AT 29:00:00 : #Veh=29 lost=0 simT=104400.0s realT=95s; (s/r): 1098.9473684210527
2018-09-04 11:49:14,723  INFO Gbl:57 used RAM: 3192082984B = 3117268kB = 3044MB  free: 1444720088B = 1377MB  total: 4636803072B = 4422MB
2018-09-04 11:49:14,893  INFO QNetsimEngine:347 SIMULATION (QNetsimEngine) AT 30:00:00 : #links=17 #nodes=1
2018-09-04 11:49:14,893  INFO QSim:506 SIMULATION (NEW QSim) AT 30:00:00 : #Veh=21 lost=0 simT=108000.0s realT=95s; (s/r): 1136.842105263158
2018-09-04 11:49:14,893  INFO Gbl:57 used RAM: 3199215208B = 3124233kB = 3051MB  free: 1437587864B = 1370MB  total: 4636803072B = 4422MB
2018-09-04 11:49:15,061  INFO QNetsimEngine:347 SIMULATION (QNetsimEngine) AT 31:00:00 : #links=13 #nodes=0
2018-09-04 11:49:15,061  INFO QSim:506 SIMULATION (NEW QSim) AT 31:00:00 : #Veh=16 lost=0 simT=111600.0s realT=95s; (s/r): 1174.7368421052631
2018-09-04 11:49:15,061  INFO Gbl:57 used RAM: 3203559536B = 3128476kB = 3055MB  free: 1433243536B = 1366MB  total: 4636803072B = 4422MB
2018-09-04 11:49:15,227  INFO QNetsimEngine:347 SIMULATION (QNetsimEngine) AT 32:00:00 : #links=4 #nodes=0
2018-09-04 11:49:15,227  INFO QSim:506 SIMULATION (NEW QSim) AT 32:00:00 : #Veh=14 lost=0 simT=115200.0s realT=95s; (s/r): 1212.6315789473683
2018-09-04 11:49:15,227  INFO Gbl:57 used RAM: 3207175984B = 3132007kB = 3058MB  free: 1429627088B = 1363MB  total: 4636803072B = 4422MB
2018-09-04 11:49:15,394  INFO QNetsimEngine:347 SIMULATION (QNetsimEngine) AT 33:00:00 : #links=2 #nodes=0
2018-09-04 11:49:15,394  INFO QSim:506 SIMULATION (NEW QSim) AT 33:00:00 : #Veh=13 lost=0 simT=118800.0s realT=96s; (s/r): 1237.5
2018-09-04 11:49:15,394  INFO Gbl:57 used RAM: 3210792424B = 3135539kB = 3062MB  free: 1426010648B = 1359MB  total: 4636803072B = 4422MB
2018-09-04 11:49:15,539  INFO QNetsimEngine:347 SIMULATION (QNetsimEngine) AT 34:00:00 : #links=0 #nodes=0
2018-09-04 11:49:15,539  INFO QSim:506 SIMULATION (NEW QSim) AT 34:00:00 : #Veh=13 lost=0 simT=122400.0s realT=96s; (s/r): 1275.0
2018-09-04 11:49:15,539  INFO Gbl:57 used RAM: 3214408888B = 3139071kB = 3065MB  free: 1422394184B = 1356MB  total: 4636803072B = 4422MB
2018-09-04 11:49:15,685  INFO QNetsimEngine:347 SIMULATION (QNetsimEngine) AT 35:00:00 : #links=0 #nodes=0
2018-09-04 11:49:15,685  INFO QSim:506 SIMULATION (NEW QSim) AT 35:00:00 : #Veh=13 lost=0 simT=126000.0s realT=96s; (s/r): 1312.5
2018-09-04 11:49:15,685  INFO Gbl:57 used RAM: 3220205296B = 3144731kB = 3071MB  free: 1416597776B = 1350MB  total: 4636803072B = 4422MB
2018-09-04 11:49:15,847  INFO QNetsimEngine:347 SIMULATION (QNetsimEngine) AT 36:00:00 : #links=4 #nodes=0
2018-09-04 11:49:15,848  INFO QSim:506 SIMULATION (NEW QSim) AT 36:00:00 : #Veh=13 lost=0 simT=129600.0s realT=96s; (s/r): 1350.0
2018-09-04 11:49:15,848  INFO Gbl:57 used RAM: 3238055592B = 3162163kB = 3088MB  free: 1398747480B = 1333MB  total: 4636803072B = 4422MB
2018-09-04 11:49:16,019  INFO AbstractController$6:220 ### ITERATION 0 fires after mobsim event
2018-09-04 11:49:16,020  INFO Gbl:190 Thread performance: Thread=class org.matsim.core.events.SimStepParallelEventsManagerImpl$ProcessEventsRunnable0  cpu-time=80.026306sec
2018-09-04 11:49:16,020  INFO ControlerListenerManagerImpl:248 calling notifyAfterMobsim on org.matsim.analysis.LegTimesControlerListener
2018-09-04 11:49:16,048  INFO LegTimesControlerListener:50 [0] average trip (probably: leg) duration is: 689 seconds = 00:11:29
2018-09-04 11:49:16,048  INFO ControlerListenerManagerImpl:248 calling notifyAfterMobsim on org.matsim.core.scoring.EventsToActivities$1
2018-09-04 11:49:16,136  INFO ControlerListenerManagerImpl:251 [it.0] all ControlerAfterMobsimListeners called.
2018-09-04 11:49:16,139  INFO AbstractController$4:149 ### ITERATION 0 fires scoring event
2018-09-04 11:49:16,139  INFO ControlerListenerManagerImpl:183 calling notifyScoring on org.matsim.core.scoring.PlansScoringImpl
2018-09-04 11:49:16,182  INFO NewScoreAssignerImpl:36 it: 0 msaStart: 0
2018-09-04 11:49:16,255  INFO ControlerListenerManagerImpl:194 [it.0] all ControlerScoringListeners called.
2018-09-04 11:49:16,257  INFO AbstractController$5:157 ### ITERATION 0 fires iteration end event
2018-09-04 11:49:16,258  INFO ControlerListenerManagerImpl:160 calling notifyIterationEnds on org.matsim.core.controler.corelisteners.EventsHandlingImpl
2018-09-04 11:49:16,259  INFO EventsManagerImpl:161 removing Event-Handler: org.matsim.core.events.algorithms.EventWriterXML
2018-09-04 11:49:16,260  INFO EventsManagerImpl:161 removing Event-Handler: org.matsim.core.events.algorithms.EventWriterXML
2018-09-04 11:49:16,260  INFO ControlerListenerManagerImpl:160 calling notifyIterationEnds on org.matsim.core.scoring.PlansScoringImpl
2018-09-04 11:49:16,295  INFO ControlerListenerManagerImpl:167 calling notifyIterationEnds on org.matsim.counts.CountsControlerListener
2018-09-04 11:49:16,295  INFO ControlerListenerManagerImpl:167 calling notifyIterationEnds on org.matsim.analysis.ModeStatsControlerListener
2018-09-04 11:49:16,535  INFO ModeStatsControlerListener:155 -- mode share of mode access_walk = 0.0
2018-09-04 11:49:16,536  INFO ModeStatsControlerListener:155 -- mode share of mode bicycle = 0.1314315494966673
2018-09-04 11:49:16,536  INFO ModeStatsControlerListener:155 -- mode share of mode car = 0.4322626656060565
2018-09-04 11:49:16,536  INFO ModeStatsControlerListener:155 -- mode share of mode egress_walk = 0.0
2018-09-04 11:49:16,536  INFO ModeStatsControlerListener:155 -- mode share of mode freight = 0.0014647392818937378
2018-09-04 11:49:16,536  INFO ModeStatsControlerListener:155 -- mode share of mode pt = 0.18173190333817923
2018-09-04 11:49:16,536  INFO ModeStatsControlerListener:155 -- mode share of mode ride = 0.09118139177661354
2018-09-04 11:49:16,536  INFO ModeStatsControlerListener:155 -- mode share of mode transit_walk = 0.0
2018-09-04 11:49:16,536  INFO ModeStatsControlerListener:155 -- mode share of mode walk = 0.16192775050058975
2018-09-04 11:49:16,536  INFO ControlerListenerManagerImpl:167 calling notifyIterationEnds on org.matsim.analysis.ScoreStatsControlerListener
2018-09-04 11:49:16,563  INFO ScoreStatsControlerListener:191 -- avg. score of the executed plan of each agent: 115.32558813566563
2018-09-04 11:49:16,563  INFO ScoreStatsControlerListener:192 -- avg. score of the worst plan of each agent: 115.32558813566563
2018-09-04 11:49:16,563  INFO ScoreStatsControlerListener:193 -- avg. of the avg. plan score per agent: 115.32558813566563
2018-09-04 11:49:16,563  INFO ScoreStatsControlerListener:194 -- avg. score of the best plan of each agent: 115.32558813566563
2018-09-04 11:49:16,563  INFO ControlerListenerManagerImpl:167 calling notifyIterationEnds on org.matsim.analysis.TravelDistanceStatsControlerListener
2018-09-04 11:49:16,571  INFO TravelDistanceStats:128 [TravelDistanceStats] using 6 thread(s).
2018-09-04 11:49:16,600  INFO TravelDistanceStats:141 [TravelDistanceStats] all threads finished.
2018-09-04 11:49:16,600  INFO TravelDistanceStats:161 -- average of the average leg distance per plan (executed plans only): 3633.329353097706
2018-09-04 11:49:16,601  INFO TravelDistanceStats:162 (TravelDistanceStats takes an average over all legs where the simulation reports travelled distances. These are car legs, pt legs,
2018-09-04 11:49:16,601  INFO TravelDistanceStats:163 (and teleported legs whose route contains a distance.)
2018-09-04 11:49:16,601  INFO ControlerListenerManagerImpl:167 calling notifyIterationEnds on org.matsim.analysis.LegHistogramListener
2018-09-04 11:49:16,605  INFO LegHistogramListener:72 number of legs:	437031	100%
2018-09-04 11:49:16,605  INFO LegHistogramListener:79 number of access_walk legs:	112070	25.643489821088206%
2018-09-04 11:49:16,605  INFO LegHistogramListener:79 number of bicycle legs:	23956	5.481533346604703%
2018-09-04 11:49:16,606  INFO LegHistogramListener:79 number of car legs:	78789	18.02824055959417%
2018-09-04 11:49:16,606  INFO LegHistogramListener:79 number of egress_walk legs:	112063	25.64188810404754%
2018-09-04 11:49:16,606  INFO LegHistogramListener:79 number of freight legs:	267	0.06109406426546401%
2018-09-04 11:49:16,606  INFO LegHistogramListener:79 number of pt legs:	41137	9.412833414563268%
2018-09-04 11:49:16,606  INFO LegHistogramListener:79 number of ride legs:	16618	3.8024762545448723%
2018-09-04 11:49:16,606  INFO LegHistogramListener:79 number of transit_walk legs:	22618	5.175376575117097%
2018-09-04 11:49:16,606  INFO LegHistogramListener:79 number of walk legs:	29513	6.753067860174679%
2018-09-04 11:49:20,348  INFO ControlerListenerManagerImpl:167 calling notifyIterationEnds on org.matsim.analysis.LinkStatsControlerListener
2018-09-04 11:49:20,348  INFO ControlerListenerManagerImpl:171 [it.0] all ControlerIterationEndsListeners called.
2018-09-04 11:49:20,567  INFO AbstractController:167 ### ITERATION 0 ENDS
2018-09-04 11:49:20,567  INFO AbstractController:168 ###################################################
2018-09-04 11:49:20,567  INFO MatsimRuntimeModifications:58 S H U T D O W N   ---   start shutdown.
2018-09-04 11:49:20,568  INFO ControlerListenerManagerImpl:121 calling notifyShutdown on org.matsim.core.controler.corelisteners.EventsHandlingImpl
2018-09-04 11:49:20,568  INFO ControlerListenerManagerImpl:121 calling notifyShutdown on org.matsim.core.controler.corelisteners.DumpDataAtEndImpl
2018-09-04 11:49:20,588  INFO Counter:70 [PopulationWriter] dumped person # 1
2018-09-04 11:49:20,588  INFO Counter:70 [PopulationWriter] dumped person # 2
2018-09-04 11:49:20,588  INFO Counter:70 [PopulationWriter] dumped person # 4
2018-09-04 11:49:20,589  INFO Counter:70 [PopulationWriter] dumped person # 8
2018-09-04 11:49:20,590  INFO Counter:70 [PopulationWriter] dumped person # 16
2018-09-04 11:49:20,592  INFO Counter:70 [PopulationWriter] dumped person # 32
2018-09-04 11:49:20,944  INFO Counter:70 [PopulationWriter] dumped person # 64
2018-09-04 11:49:20,954  INFO Counter:70 [PopulationWriter] dumped person # 128
2018-09-04 11:49:20,970  INFO Counter:70 [PopulationWriter] dumped person # 256
2018-09-04 11:49:21,011  INFO Counter:70 [PopulationWriter] dumped person # 512
2018-09-04 11:49:21,089  INFO Counter:70 [PopulationWriter] dumped person # 1024
2018-09-04 11:49:21,245  INFO Counter:70 [PopulationWriter] dumped person # 2048
2018-09-04 11:49:21,559  INFO Counter:70 [PopulationWriter] dumped person # 4096
2018-09-04 11:49:22,166  INFO Counter:70 [PopulationWriter] dumped person # 8192
2018-09-04 11:49:23,347  INFO Counter:70 [PopulationWriter] dumped person # 16384
2018-09-04 11:49:25,533  INFO Counter:70 [PopulationWriter] dumped person # 32768
2018-09-04 11:49:27,545  INFO PopulationWriter:139 Population written to: ./scenarios/berlin-v5.2-1pct/output-berlin-v5.2-1pct/berlin-v5.2-1pct.output_plans.xml.gz
2018-09-04 11:49:27,547  INFO Counter:76 [PopulationWriter] dumped person # 49290
2018-09-04 11:49:30,804  INFO NetworkWriter:68 Writing network to file: ./scenarios/berlin-v5.2-1pct/output-berlin-v5.2-1pct/berlin-v5.2-1pct.output_network.xml.gz...
2018-09-04 11:49:32,627  INFO NetworkWriter:71 done.
2018-09-04 11:49:32,644  INFO Config:569 setting context to [file:/Users/ihab/Documents/workspace/matsim-berlin/]
2018-09-04 11:49:32,646  INFO Config:569 setting context to [file:/Users/ihab/Documents/workspace/matsim-berlin/]
2018-09-04 11:49:32,647  INFO Config:569 setting context to [file:/Users/ihab/Documents/workspace/matsim-berlin/]
2018-09-04 11:49:32,649  INFO Config:569 setting context to [file:/Users/ihab/Documents/workspace/matsim-berlin/]
2018-09-04 11:49:32,652  INFO Config:569 setting context to [file:/Users/ihab/Documents/workspace/matsim-berlin/]
2018-09-04 11:49:32,654  INFO Config:569 setting context to [file:/Users/ihab/Documents/workspace/matsim-berlin/]
2018-09-04 11:49:32,655  INFO Config:569 setting context to [file:/Users/ihab/Documents/workspace/matsim-berlin/]
2018-09-04 11:49:32,656  INFO Config:569 setting context to [file:/Users/ihab/Documents/workspace/matsim-berlin/]
2018-09-04 11:49:32,658  INFO Config:569 setting context to [file:/Users/ihab/Documents/workspace/matsim-berlin/]
2018-09-04 11:49:32,659  INFO Config:569 setting context to [file:/Users/ihab/Documents/workspace/matsim-berlin/]
2018-09-04 11:49:32,660  INFO Config:569 setting context to [file:/Users/ihab/Documents/workspace/matsim-berlin/]
2018-09-04 11:49:32,661  INFO Config:569 setting context to [file:/Users/ihab/Documents/workspace/matsim-berlin/]
2018-09-04 11:49:32,782  INFO Config:569 setting context to [file:/Users/ihab/Documents/workspace/matsim-berlin/]
2018-09-04 11:49:32,783  INFO Config:569 setting context to [file:/Users/ihab/Documents/workspace/matsim-berlin/]
2018-09-04 11:49:32,784  INFO Config:569 setting context to [file:/Users/ihab/Documents/workspace/matsim-berlin/]
2018-09-04 11:49:32,786  INFO Config:569 setting context to [file:/Users/ihab/Documents/workspace/matsim-berlin/]
2018-09-04 11:49:32,792  INFO Config:569 setting context to [file:/Users/ihab/Documents/workspace/matsim-berlin/]
2018-09-04 11:49:32,793  INFO Config:569 setting context to [file:/Users/ihab/Documents/workspace/matsim-berlin/]
2018-09-04 11:49:32,795  INFO Config:569 setting context to [file:/Users/ihab/Documents/workspace/matsim-berlin/]
2018-09-04 11:49:32,797  INFO Config:569 setting context to [file:/Users/ihab/Documents/workspace/matsim-berlin/]
2018-09-04 11:49:32,798  INFO Config:569 setting context to [file:/Users/ihab/Documents/workspace/matsim-berlin/]
2018-09-04 11:49:32,800  INFO Config:569 setting context to [file:/Users/ihab/Documents/workspace/matsim-berlin/]
2018-09-04 11:49:32,801  INFO Config:569 setting context to [file:/Users/ihab/Documents/workspace/matsim-berlin/]
2018-09-04 11:49:32,802  INFO Config:569 setting context to [file:/Users/ihab/Documents/workspace/matsim-berlin/]
2018-09-04 11:49:32,803  INFO Config:569 setting context to [file:/Users/ihab/Documents/workspace/matsim-berlin/]
2018-09-04 11:49:34,089  INFO VehicleWriterV1:55 Vehicles written to: ./scenarios/berlin-v5.2-1pct/output-berlin-v5.2-1pct/berlin-v5.2-1pct.output_transitVehicles.xml.gz
2018-09-04 11:49:34,213  INFO VehicleWriterV1:55 Vehicles written to: ./scenarios/berlin-v5.2-1pct/output-berlin-v5.2-1pct/berlin-v5.2-1pct.output_vehicles.xml.gz
2018-09-04 11:49:34,216  INFO Counter:76 [HouseholdsWriter] dumped household # 0
2018-09-04 11:49:34,219  INFO LanesWriter:62 Using LaneDefinitionWriter20...
2018-09-04 11:49:34,219  INFO LanesWriter:71 writing to file: ./scenarios/berlin-v5.2-1pct/output-berlin-v5.2-1pct/berlin-v5.2-1pct.output_lanes.xml.gz
2018-09-04 11:49:34,882  INFO ControlerListenerManagerImpl:126 calling notifyShutdown on org.matsim.analysis.ModeStatsControlerListener
2018-09-04 11:49:34,882  INFO ControlerListenerManagerImpl:126 calling notifyShutdown on org.matsim.analysis.ScoreStatsControlerListener
2018-09-04 11:49:34,883  INFO ControlerListenerManagerImpl:126 calling notifyShutdown on org.matsim.analysis.TravelDistanceStatsControlerListener
2018-09-04 11:49:34,883  INFO ControlerListenerManagerImpl:129 all ControlerShutdownListeners called.
2018-09-04 11:49:34,883  INFO MatsimRuntimeModifications:81 S H U T D O W N   ---   shutdown completed.
2018-09-04 11:49:34,883  INFO OutputDirectoryLogging:146 closing the logfile, i.e. messages sent to the logger after this message are not written to the logfile.
